266

C 59.016475 3.512957 0.789972
C 59.906452 2.572698 0.591776
C 59.244951 1.312623 0.290969
C 59.603389 0.006961 0.002288
C 58.778211 -1.124111 -0.082928
C 59.233776 -2.332835 0.498379
C 58.261082 -3.265381 0.298224
C 57.229988 -2.597680 -0.404764
N 57.566713 -1.316821 -0.621678
C 56.072027 -3.323796 -0.736481
C 54.753927 -2.881100 -0.622946
C 53.441580 -3.483234 -0.719925
C 52.519952 -2.536586 -0.513840
C 53.216838 -1.290756 -0.277109
N 54.537912 -1.570508 -0.356795
C 52.817596 0.011241 -0.009106
C 53.650208 1.147917 0.066802
C 53.216065 2.349907 -0.543338
C 54.211578 3.266295 -0.351382
C 55.225729 2.593052 0.372549
N 54.860532 1.325230 0.611373
C 56.395371 3.300008 0.694048
C 57.710624 2.896484 0.624033
N 57.900247 1.585380 0.327631
H 59.183739 4.541501 1.028561
H 60.976711 2.696035 0.640795
H 60.194298 -2.518538 1.016955
H 58.297964 -4.321991 0.623551
H 56.963428 -0.549411 -1.169197
H 56.160418 -4.359223 -1.114828
H 53.242905 -4.543935 -0.928670
H 51.450543 -2.728521 -0.533074
H 51.742653 0.100511 0.128638
H 52.262411 2.541464 -1.072136
H 54.197157 4.316524 -0.697824
H 55.453857 0.567786 1.183369
H 56.326863 4.357413 1.050764
C 117.013337 -3.490665 0.826342
C 116.123359 -2.552515 0.618392
C 116.784861 -1.295633 0.304514
C 116.426422 0.006961 0.002288
C 117.251601 1.137087 -0.094671
C 116.796035 2.351783 0.474051
C 117.768730 3.282201 0.264222
C 118.799824 2.607235 -0.431793
N 118.463099 1.324191 -0.635393
C 119.957784 3.329866 -0.771034
C 121.275885 2.888373 -0.652907
C 122.588232 3.489467 -0.756135
C 123.509859 2.545011 -0.540229
C 122.812973 1.301707 -0.290572
N 121.491900 1.580616 -0.373159
C 123.212215 0.002563 -0.009061
C 122.379603 -1.133263 0.078649
C 122.813747 -2.341525 -0.518975
C 121.818233 -3.255870 -0.317512
C 120.804082 -2.575145 0.399387
N 121.169279 -1.304911 0.625031
C 119.634441 -3.278724 0.728212
C 118.319188 -2.875948 0.654009
N 118.129565 -1.567994 0.344006
H 116.846073 -4.516676 1.075601
H 115.053100 -2.675337 0.668689
H 115.835514 2.542862 0.990671
H 117.731848 4.342132 0.578557
H 119.066384 0.551136 -1.174913
H 119.869393 4.361308 -1.160114
H 122.786907 4.547943 -0.975885
H 124.579269 2.736735 -0.561455
H 124.287158 -0.085271 0.129603
H 123.767401 -2.538564 -1.045755
H 121.832655 -4.309641 -0.653027
H 120.575955 -0.541568 1.189130
H 119.702949 -4.332367 1.095891
C 61.830833 0.006961 0.002288
C 63.047039 0.006961 0.002288
C 72.061221 0.006961 0.002288
C 73.277427 0.006961 0.002288
C 82.291609 0.006961 0.002288
C 83.507815 0.006961 0.002288
C 92.521997 0.006961 0.002288
C 93.738202 0.006961 0.002288
C 102.752385 0.006961 0.002288
C 103.968590 0.006961 0.002288
C 112.982773 0.006961 0.002288
C 114.198978 0.006961 0.002288
C 64.762187 -3.592599 0.000798
C 63.887637 -2.597694 -0.009504
C 64.559100 -1.318911 0.003685
C 64.162070 -0.003326 -0.001093
C 64.973262 1.140998 -0.155219
C 64.494236 2.193514 -0.967285
C 65.481321 3.136267 -0.958754
C 66.528593 2.634472 -0.145951
N 66.189740 1.428104 0.326795
C 67.688970 3.412455 0.008399
C 69.009959 2.954582 -0.020994
C 70.322529 3.582715 -0.082122
C 71.236641 2.627651 -0.084705
C 70.563095 1.340777 -0.025516
N 69.251036 1.629376 0.009274
C 70.965378 -0.003326 -0.001093
C 70.133224 -1.117115 0.181188
C 70.573182 -2.148772 1.044499
C 69.575000 -3.072112 1.049120
C 68.552084 -2.592175 0.195690
N 68.919262 -1.410928 -0.314817
C 67.395175 -3.367582 0.038622
C 66.074400 -2.948104 0.021937
N 65.898009 -1.609901 0.022837
H 64.593667 -4.654766 -0.004605
H 62.799809 -2.783730 -0.026531
H 63.530158 2.268885 -1.501601
H 65.443175 4.107381 -1.491196
H 66.797418 0.791005 1.015425
H 67.633870 4.498717 0.152515
H 70.540956 4.650707 -0.120452
H 72.312956 2.773694 -0.124332
H 71.527192 -2.213184 1.602047
H 69.600419 -4.017430 1.624440
H 68.332185 -0.791471 -1.038468
H 67.455893 -4.479322 -0.075507
C 74.992575 -3.592599 0.000798
C 74.118025 -2.597694 -0.009504
C 74.789488 -1.318911 0.003685
C 74.392457 -0.003326 -0.001093
C 75.203650 1.140998 -0.155219
C 74.724624 2.193514 -0.967285
C 75.711709 3.136267 -0.958754
C 76.758980 2.634472 -0.145951
N 76.420128 1.428104 0.326795
C 77.919358 3.412455 0.008399
C 79.240347 2.954582 -0.020994
C 80.552917 3.582715 -0.082122
C 81.467029 2.627651 -0.084705
C 80.793482 1.340777 -0.025516
N 79.481424 1.629376 0.009274
C 81.195766 -0.003326 -0.001093
C 80.363612 -1.117115 0.181188
C 80.803570 -2.148772 1.044499
C 79.805388 -3.072112 1.049120
C 78.782472 -2.592175 0.195690
N 79.149650 -1.410928 -0.314817
C 77.625563 -3.367582 0.038622
C 76.304788 -2.948104 0.021937
N 76.128397 -1.609901 0.022837
H 74.824055 -4.654766 -0.004605
H 73.030197 -2.783730 -0.026531
H 73.760546 2.268885 -1.501601
H 75.673563 4.107381 -1.491196
H 77.027806 0.791005 1.015425
H 77.864258 4.498717 0.152515
H 80.771344 4.650707 -0.120452
H 82.543344 2.773694 -0.124332
H 81.757580 -2.213184 1.602047
H 79.830807 -4.017430 1.624440
H 78.562573 -0.791471 -1.038468
H 77.686281 -4.479322 -0.075507
C 85.222963 -3.592599 0.000798
C 84.348413 -2.597694 -0.009504
C 85.019876 -1.318911 0.003685
C 84.622845 -0.003326 -0.001093
C 85.434038 1.140998 -0.155219
C 84.955012 2.193514 -0.967285
C 85.942097 3.136267 -0.958754
C 86.989368 2.634472 -0.145951
N 86.650515 1.428104 0.326795
C 88.149746 3.412455 0.008399
C 89.470735 2.954582 -0.020994
C 90.783305 3.582715 -0.082122
C 91.697417 2.627651 -0.084705
C 91.023870 1.340777 -0.025516
N 89.711812 1.629376 0.009274
C 91.426154 -0.003326 -0.001093
C 90.594000 -1.117115 0.181188
C 91.033958 -2.148772 1.044499
C 90.035776 -3.072112 1.049120
C 89.012860 -2.592175 0.195690
N 89.380037 -1.410928 -0.314817
C 87.855951 -3.367582 0.038622
C 86.535176 -2.948104 0.021937
N 86.358785 -1.609901 0.022837
H 85.054443 -4.654766 -0.004605
H 83.260585 -2.783730 -0.026531
H 83.990934 2.268885 -1.501601
H 85.903950 4.107381 -1.491196
H 87.258194 0.791005 1.015425
H 88.094646 4.498717 0.152515
H 91.001731 4.650707 -0.120452
H 92.773732 2.773694 -0.124332
H 91.987968 -2.213184 1.602047
H 90.061195 -4.017430 1.624440
H 88.792961 -0.791471 -1.038468
H 87.916669 -4.479322 -0.075507
C 95.453350 -3.592599 0.000798
C 94.578801 -2.597694 -0.009504
C 95.250264 -1.318911 0.003685
C 94.853233 -0.003326 -0.001093
C 95.664426 1.140998 -0.155219
C 95.185400 2.193514 -0.967285
C 96.172485 3.136267 -0.958754
C 97.219756 2.634472 -0.145951
N 96.880903 1.428104 0.326795
C 98.380134 3.412455 0.008399
C 99.701123 2.954582 -0.020994
C 101.013692 3.582715 -0.082122
C 101.927805 2.627651 -0.084705
C 101.254258 1.340777 -0.025516
N 99.942200 1.629376 0.009274
C 101.656542 -0.003326 -0.001093
C 100.824388 -1.117115 0.181188
C 101.264346 -2.148772 1.044499
C 100.266164 -3.072112 1.049120
C 99.243248 -2.592175 0.195690
N 99.610425 -1.410928 -0.314817
C 98.086339 -3.367582 0.038622
C 96.765564 -2.948104 0.021937
N 96.589173 -1.609901 0.022837
H 95.284831 -4.654766 -0.004605
H 93.490972 -2.783730 -0.026531
H 94.221322 2.268885 -1.501601
H 96.134338 4.107381 -1.491196
H 97.488582 0.791005 1.015425
H 98.325034 4.498717 0.152515
H 101.232119 4.650707 -0.120452
H 103.004120 2.773694 -0.124332
H 102.218356 -2.213184 1.602047
H 100.291582 -4.017430 1.624440
H 99.023349 -0.791471 -1.038468
H 98.147057 -4.479322 -0.075507
C 105.683738 -3.592599 0.000798
C 104.809188 -2.597694 -0.009504
C 105.480652 -1.318911 0.003685
C 105.083621 -0.003326 -0.001093
C 105.894813 1.140998 -0.155219
C 105.415788 2.193514 -0.967285
C 106.402873 3.136267 -0.958754
C 107.450144 2.634472 -0.145951
N 107.111291 1.428104 0.326795
C 108.610522 3.412455 0.008399
C 109.931511 2.954582 -0.020994
C 111.244080 3.582715 -0.082122
C 112.158193 2.627651 -0.084705
C 111.484646 1.340777 -0.025516
N 110.172588 1.629376 0.009274
C 111.886930 -0.003326 -0.001093
C 111.054776 -1.117115 0.181188
C 111.494734 -2.148772 1.044499
C 110.496552 -3.072112 1.049120
C 109.473636 -2.592175 0.195690
N 109.840813 -1.410928 -0.314817
C 108.316727 -3.367582 0.038622
C 106.995952 -2.948104 0.021937
N 106.819561 -1.609901 0.022837
H 105.515219 -4.654766 -0.004605
H 103.721360 -2.783730 -0.026531
H 104.451710 2.268885 -1.501601
H 106.364726 4.107381 -1.491196
H 107.718970 0.791005 1.015425
H 108.555422 4.498717 0.152515
H 111.462507 4.650707 -0.120452
H 113.234508 2.773694 -0.124332
H 112.448743 -2.213184 1.602047
H 110.521970 -4.017430 1.624440
H 109.253737 -0.791471 -1.038468
H 108.377445 -4.479322 -0.075507
