
  xtb     11192114243D
 xtb: 6.4.1 (bd6e46d)
266300  0     0  0            999 V2000
   57.3703    3.3797    0.6589 C   0  0  0  0  0  0  0  0  0  0  0  0
   58.3441    2.4649    0.4851 C   0  0  0  0  0  0  0  0  0  0  0  0
   57.6696    1.2141    0.1881 C   0  0  0  0  0  0  0  0  0  0  0  0
   58.3544    0.0077   -0.0559 C   0  0  0  0  0  0  0  0  0  0  0  0
   57.7229   -1.2207   -0.3076 C   0  0  0  0  0  0  0  0  0  0  0  0
   58.3422   -2.4704   -0.5775 C   0  0  0  0  0  0  0  0  0  0  0  0
   57.3502   -3.3897   -0.7610 C   0  0  0  0  0  0  0  0  0  0  0  0
   56.1026   -2.7203   -0.6138 C   0  0  0  0  0  0  0  0  0  0  0  0
   56.3805   -1.4153   -0.3416 N   0  0  0  0  0  0  0  0  0  0  0  0
   54.8433   -3.2893   -0.7332 C   0  0  0  0  0  0  0  0  0  0  0  0
   53.6146   -2.6536   -0.6215 C   0  0  0  0  0  0  0  0  0  0  0  0
   52.3494   -3.3571   -0.7772 C   0  0  0  0  0  0  0  0  0  0  0  0
   51.3835   -2.4337   -0.6173 C   0  0  0  0  0  0  0  0  0  0  0  0
   52.0661   -1.1740   -0.3649 C   0  0  0  0  0  0  0  0  0  0  0  0
   53.4051   -1.3444   -0.3731 N   0  0  0  0  0  0  0  0  0  0  0  0
   51.3999    0.0259   -0.1499 C   0  0  0  0  0  0  0  0  0  0  0  0
   52.0074    1.2476    0.0960 C   0  0  0  0  0  0  0  0  0  0  0  0
   51.3848    2.5068    0.3308 C   0  0  0  0  0  0  0  0  0  0  0  0
   52.3727    3.4244    0.5333 C   0  0  0  0  0  0  0  0  0  0  0  0
   53.6243    2.7505    0.4261 C   0  0  0  0  0  0  0  0  0  0  0  0
   53.3511    1.4458    0.1613 N   0  0  0  0  0  0  0  0  0  0  0  0
   54.8838    3.3127    0.5708 C   0  0  0  0  0  0  0  0  0  0  0  0
   56.1126    2.6772    0.4689 C   0  0  0  0  0  0  0  0  0  0  0  0
   56.3349    1.3705    0.1906 N   0  0  0  0  0  0  0  0  0  0  0  0
   57.4578    4.4230    0.8943 H   0  0  0  0  0  0  0  0  0  0  0  0
   59.4076    2.5835    0.5581 H   0  0  0  0  0  0  0  0  0  0  0  0
   59.4012   -2.6289   -0.6340 H   0  0  0  0  0  0  0  0  0  0  0  0
   57.4612   -4.4334   -0.9821 H   0  0  0  0  0  0  0  0  0  0  0  0
   55.7004   -0.6793   -0.1899 H   0  0  0  0  0  0  0  0  0  0  0  0
   54.8194   -4.3495   -0.9446 H   0  0  0  0  0  0  0  0  0  0  0  0
   52.2560   -4.4070   -0.9798 H   0  0  0  0  0  0  0  0  0  0  0  0
   50.3178   -2.5530   -0.6589 H   0  0  0  0  0  0  0  0  0  0  0  0
   50.3200    0.0055   -0.1748 H   0  0  0  0  0  0  0  0  0  0  0  0
   50.3250    2.6728    0.3416 H   0  0  0  0  0  0  0  0  0  0  0  0
   52.2597    4.4715    0.7381 H   0  0  0  0  0  0  0  0  0  0  0  0
   54.0307    0.7067    0.0276 H   0  0  0  0  0  0  0  0  0  0  0  0
   54.9100    4.3712    0.7910 H   0  0  0  0  0  0  0  0  0  0  0  0
  118.6412   -3.4535    0.0249 C   0  0  0  0  0  0  0  0  0  0  0  0
  117.6725   -2.5172    0.0147 C   0  0  0  0  0  0  0  0  0  0  0  0
  118.3552   -1.2357    0.0082 C   0  0  0  0  0  0  0  0  0  0  0  0
  117.6772   -0.0018   -0.0128 C   0  0  0  0  0  0  0  0  0  0  0  0
  118.3115    1.2498   -0.0491 C   0  0  0  0  0  0  0  0  0  0  0  0
  117.6932    2.5290   -0.0505 C   0  0  0  0  0  0  0  0  0  0  0  0
  118.6859    3.4654   -0.0812 C   0  0  0  0  0  0  0  0  0  0  0  0
  119.9326    2.7786   -0.0945 C   0  0  0  0  0  0  0  0  0  0  0  0
  119.6538    1.4459   -0.0747 N   0  0  0  0  0  0  0  0  0  0  0  0
  121.1934    3.3564   -0.1165 C   0  0  0  0  0  0  0  0  0  0  0  0
  122.4192    2.7053   -0.1110 C   0  0  0  0  0  0  0  0  0  0  0  0
  123.6882    3.4187   -0.1307 C   0  0  0  0  0  0  0  0  0  0  0  0
  124.6493    2.4767   -0.1137 C   0  0  0  0  0  0  0  0  0  0  0  0
  123.9599    1.1959   -0.0836 C   0  0  0  0  0  0  0  0  0  0  0  0
  122.6217    1.3718   -0.0831 N   0  0  0  0  0  0  0  0  0  0  0  0
  124.6210   -0.0257   -0.0596 C   0  0  0  0  0  0  0  0  0  0  0  0
  124.0103   -1.2699   -0.0296 C   0  0  0  0  0  0  0  0  0  0  0  0
  124.6312   -2.5517   -0.0116 C   0  0  0  0  0  0  0  0  0  0  0  0
  123.6418   -3.4895    0.0123 C   0  0  0  0  0  0  0  0  0  0  0  0
  122.3910   -2.8057    0.0104 C   0  0  0  0  0  0  0  0  0  0  0  0
  122.6661   -1.4750   -0.0145 N   0  0  0  0  0  0  0  0  0  0  0  0
  121.1299   -3.3824    0.0266 C   0  0  0  0  0  0  0  0  0  0  0  0
  119.9037   -2.7340    0.0220 C   0  0  0  0  0  0  0  0  0  0  0  0
  119.6893   -1.3968    0.0098 N   0  0  0  0  0  0  0  0  0  0  0  0
  118.5473   -4.5226    0.0303 H   0  0  0  0  0  0  0  0  0  0  0  0
  116.6073   -2.6425   -0.0023 H   0  0  0  0  0  0  0  0  0  0  0  0
  116.6344    2.6963   -0.0196 H   0  0  0  0  0  0  0  0  0  0  0  0
  118.5759    4.5323   -0.0900 H   0  0  0  0  0  0  0  0  0  0  0  0
  120.3350    0.6956   -0.0715 H   0  0  0  0  0  0  0  0  0  0  0  0
  121.2214    4.4371   -0.1358 H   0  0  0  0  0  0  0  0  0  0  0  0
  123.7872    4.4871   -0.1539 H   0  0  0  0  0  0  0  0  0  0  0  0
  125.7158    2.5961   -0.1194 H   0  0  0  0  0  0  0  0  0  0  0  0
  125.7012   -0.0049   -0.0661 H   0  0  0  0  0  0  0  0  0  0  0  0
  125.6909   -2.7182   -0.0177 H   0  0  0  0  0  0  0  0  0  0  0  0
  123.7532   -4.5564    0.0293 H   0  0  0  0  0  0  0  0  0  0  0  0
  121.9864   -0.7241   -0.0222 H   0  0  0  0  0  0  0  0  0  0  0  0
  121.1001   -4.4633    0.0413 H   0  0  0  0  0  0  0  0  0  0  0  0
   59.7550    0.0264   -0.0453 C   0  0  0  0  0  0  0  0  0  0  0  0
   60.9685    0.0453   -0.0397 C   0  0  0  0  0  0  0  0  0  0  0  0
   70.8001    0.0025    0.0302 C   0  0  0  0  0  0  0  0  0  0  0  0
   72.0138    0.0204    0.0347 C   0  0  0  0  0  0  0  0  0  0  0  0
   81.8629    0.0145   -0.0533 C   0  0  0  0  0  0  0  0  0  0  0  0
   83.0775    0.0361   -0.0491 C   0  0  0  0  0  0  0  0  0  0  0  0
   92.9364    0.0069    0.0389 C   0  0  0  0  0  0  0  0  0  0  0  0
   94.1509    0.0305    0.0495 C   0  0  0  0  0  0  0  0  0  0  0  0
  104.0105   -0.0007    0.1290 C   0  0  0  0  0  0  0  0  0  0  0  0
  105.2248    0.0154    0.1091 C   0  0  0  0  0  0  0  0  0  0  0  0
  115.0631   -0.0337    0.0172 C   0  0  0  0  0  0  0  0  0  0  0  0
  116.2764   -0.0167    0.0023 C   0  0  0  0  0  0  0  0  0  0  0  0
   63.3417   -3.2537    0.9391 C   0  0  0  0  0  0  0  0  0  0  0  0
   62.3696   -2.3543    0.6915 C   0  0  0  0  0  0  0  0  0  0  0  0
   63.0465   -1.1292    0.3086 C   0  0  0  0  0  0  0  0  0  0  0  0
   62.3683    0.0570   -0.0340 C   0  0  0  0  0  0  0  0  0  0  0  0
   63.0190    1.2544   -0.3731 C   0  0  0  0  0  0  0  0  0  0  0  0
   62.4288    2.4861   -0.7594 C   0  0  0  0  0  0  0  0  0  0  0  0
   63.4433    3.3681   -1.0002 C   0  0  0  0  0  0  0  0  0  0  0  0
   64.6741    2.6921   -0.7698 C   0  0  0  0  0  0  0  0  0  0  0  0
   64.3655    1.4205   -0.3945 N   0  0  0  0  0  0  0  0  0  0  0  0
   65.9440    3.2351   -0.9107 C   0  0  0  0  0  0  0  0  0  0  0  0
   67.1697    2.6177   -0.7198 C   0  0  0  0  0  0  0  0  0  0  0  0
   68.4302    3.3131   -0.9194 C   0  0  0  0  0  0  0  0  0  0  0  0
   69.4022    2.4168   -0.6600 C   0  0  0  0  0  0  0  0  0  0  0  0
   68.7239    1.1844   -0.3035 C   0  0  0  0  0  0  0  0  0  0  0  0
   67.3894    1.3336   -0.3481 N   0  0  0  0  0  0  0  0  0  0  0  0
   69.4008   -0.0074    0.0213 C   0  0  0  0  0  0  0  0  0  0  0  0
   68.7505   -1.2119    0.3343 C   0  0  0  0  0  0  0  0  0  0  0  0
   69.3422   -2.4509    0.6949 C   0  0  0  0  0  0  0  0  0  0  0  0
   68.3283   -3.3350    0.9301 C   0  0  0  0  0  0  0  0  0  0  0  0
   67.0967   -2.6531    0.7220 C   0  0  0  0  0  0  0  0  0  0  0  0
   67.4043   -1.3769    0.3617 N   0  0  0  0  0  0  0  0  0  0  0  0
   65.8269   -3.1913    0.8774 C   0  0  0  0  0  0  0  0  0  0  0  0
   64.6013   -2.5664    0.7100 C   0  0  0  0  0  0  0  0  0  0  0  0
   64.3812   -1.2837    0.3339 N   0  0  0  0  0  0  0  0  0  0  0  0
   63.2518   -4.2769    1.2497 H   0  0  0  0  0  0  0  0  0  0  0  0
   61.3056   -2.4670    0.7663 H   0  0  0  0  0  0  0  0  0  0  0  0
   61.3743    2.6582   -0.8503 H   0  0  0  0  0  0  0  0  0  0  0  0
   63.3574    4.3908   -1.3119 H   0  0  0  0  0  0  0  0  0  0  0  0
   65.0169    0.6779   -0.1651 H   0  0  0  0  0  0  0  0  0  0  0  0
   65.9778    4.2726   -1.2147 H   0  0  0  0  0  0  0  0  0  0  0  0
   68.5206    4.3395   -1.2190 H   0  0  0  0  0  0  0  0  0  0  0  0
   70.4671    2.5360   -0.7096 H   0  0  0  0  0  0  0  0  0  0  0  0
   70.3973   -2.6259    0.7728 H   0  0  0  0  0  0  0  0  0  0  0  0
   68.4151   -4.3627    1.2247 H   0  0  0  0  0  0  0  0  0  0  0  0
   66.7519   -0.6306    0.1472 H   0  0  0  0  0  0  0  0  0  0  0  0
   65.7923   -4.2303    1.1763 H   0  0  0  0  0  0  0  0  0  0  0  0
   74.4027   -3.2644   -0.9654 C   0  0  0  0  0  0  0  0  0  0  0  0
   73.4250   -2.3805   -0.6855 C   0  0  0  0  0  0  0  0  0  0  0  0
   74.0955   -1.1492   -0.3117 C   0  0  0  0  0  0  0  0  0  0  0  0
   73.4128    0.0335    0.0335 C   0  0  0  0  0  0  0  0  0  0  0  0
   74.0610    1.2321    0.3732 C   0  0  0  0  0  0  0  0  0  0  0  0
   73.4698    2.4621    0.7631 C   0  0  0  0  0  0  0  0  0  0  0  0
   74.4846    3.3388    1.0216 C   0  0  0  0  0  0  0  0  0  0  0  0
   75.7157    2.6611    0.7981 C   0  0  0  0  0  0  0  0  0  0  0  0
   75.4074    1.3948    0.4057 N   0  0  0  0  0  0  0  0  0  0  0  0
   76.9855    3.1951    0.9710 C   0  0  0  0  0  0  0  0  0  0  0  0
   78.2134    2.5793    0.7903 C   0  0  0  0  0  0  0  0  0  0  0  0
   79.4682    3.2646    1.0492 C   0  0  0  0  0  0  0  0  0  0  0  0
   80.4459    2.3787    0.7762 C   0  0  0  0  0  0  0  0  0  0  0  0
   79.7782    1.1652    0.3455 C   0  0  0  0  0  0  0  0  0  0  0  0
   78.4428    1.3111    0.3717 N   0  0  0  0  0  0  0  0  0  0  0  0
   80.4646   -0.0015   -0.0491 C   0  0  0  0  0  0  0  0  0  0  0  0
   79.8135   -1.1852   -0.4368 C   0  0  0  0  0  0  0  0  0  0  0  0
   80.3995   -2.3973   -0.8848 C   0  0  0  0  0  0  0  0  0  0  0  0
   79.3838   -3.2745   -1.1374 C   0  0  0  0  0  0  0  0  0  0  0  0
   78.1557   -2.6140   -0.8548 C   0  0  0  0  0  0  0  0  0  0  0  0
   78.4674   -1.3557   -0.4393 N   0  0  0  0  0  0  0  0  0  0  0  0
   76.8872   -3.1625   -0.9866 C   0  0  0  0  0  0  0  0  0  0  0  0
   75.6587   -2.5620   -0.7629 C   0  0  0  0  0  0  0  0  0  0  0  0
   75.4310   -1.2874   -0.3650 N   0  0  0  0  0  0  0  0  0  0  0  0
   74.3187   -4.2865   -1.2815 H   0  0  0  0  0  0  0  0  0  0  0  0
   72.3609   -2.5076   -0.7308 H   0  0  0  0  0  0  0  0  0  0  0  0
   72.4146    2.6360    0.8444 H   0  0  0  0  0  0  0  0  0  0  0  0
   74.3984    4.3589    1.3418 H   0  0  0  0  0  0  0  0  0  0  0  0
   76.0558    0.6503    0.1723 H   0  0  0  0  0  0  0  0  0  0  0  0
   77.0174    4.2255    1.2988 H   0  0  0  0  0  0  0  0  0  0  0  0
   79.5516    4.2770    1.3950 H   0  0  0  0  0  0  0  0  0  0  0  0
   81.5083    2.4929    0.8625 H   0  0  0  0  0  0  0  0  0  0  0  0
   81.4516   -2.5605   -1.0092 H   0  0  0  0  0  0  0  0  0  0  0  0
   79.4673   -4.2838   -1.4909 H   0  0  0  0  0  0  0  0  0  0  0  0
   77.8215   -0.6216   -0.1685 H   0  0  0  0  0  0  0  0  0  0  0  0
   76.8568   -4.1919   -1.3177 H   0  0  0  0  0  0  0  0  0  0  0  0
   85.4777   -3.3941   -0.0267 C   0  0  0  0  0  0  0  0  0  0  0  0
   84.4982   -2.4694    0.0007 C   0  0  0  0  0  0  0  0  0  0  0  0
   85.1632   -1.1807   -0.0288 C   0  0  0  0  0  0  0  0  0  0  0  0
   84.4756    0.0502   -0.0395 C   0  0  0  0  0  0  0  0  0  0  0  0
   85.1275    1.2955   -0.0365 C   0  0  0  0  0  0  0  0  0  0  0  0
   84.5431    2.5877   -0.0725 C   0  0  0  0  0  0  0  0  0  0  0  0
   85.5598    3.4985   -0.0278 C   0  0  0  0  0  0  0  0  0  0  0  0
   86.7869    2.7808    0.0291 C   0  0  0  0  0  0  0  0  0  0  0  0
   86.4737    1.4560    0.0147 N   0  0  0  0  0  0  0  0  0  0  0  0
   88.0553    3.3407    0.1011 C   0  0  0  0  0  0  0  0  0  0  0  0
   89.2834    2.7005    0.1340 C   0  0  0  0  0  0  0  0  0  0  0  0
   90.5355    3.4302    0.2396 C   0  0  0  0  0  0  0  0  0  0  0  0
   91.5149    2.5051    0.2239 C   0  0  0  0  0  0  0  0  0  0  0  0
   90.8508    1.2214    0.1013 C   0  0  0  0  0  0  0  0  0  0  0  0
   89.5158    1.3675    0.0620 N   0  0  0  0  0  0  0  0  0  0  0  0
   91.5384   -0.0070    0.0266 C   0  0  0  0  0  0  0  0  0  0  0  0
   90.8880   -1.2498   -0.0586 C   0  0  0  0  0  0  0  0  0  0  0  0
   91.4746   -2.5375   -0.1620 C   0  0  0  0  0  0  0  0  0  0  0  0
   90.4579   -3.4488   -0.1974 C   0  0  0  0  0  0  0  0  0  0  0  0
   89.2291   -2.7354   -0.1228 C   0  0  0  0  0  0  0  0  0  0  0  0
   89.5412   -1.4126   -0.0468 N   0  0  0  0  0  0  0  0  0  0  0  0
   87.9596   -3.2976   -0.1137 C   0  0  0  0  0  0  0  0  0  0  0  0
   86.7309   -2.6597   -0.0634 C   0  0  0  0  0  0  0  0  0  0  0  0
   86.4987   -1.3247   -0.0544 N   0  0  0  0  0  0  0  0  0  0  0  0
   85.3966   -4.4642   -0.0183 H   0  0  0  0  0  0  0  0  0  0  0  0
   83.4362   -2.6072    0.0523 H   0  0  0  0  0  0  0  0  0  0  0  0
   83.4914    2.7837   -0.1380 H   0  0  0  0  0  0  0  0  0  0  0  0
   85.4773    4.5680   -0.0364 H   0  0  0  0  0  0  0  0  0  0  0  0
   87.1185    0.6728    0.0337 H   0  0  0  0  0  0  0  0  0  0  0  0
   88.0854    4.4216    0.1353 H   0  0  0  0  0  0  0  0  0  0  0  0
   90.6158    4.4974    0.3179 H   0  0  0  0  0  0  0  0  0  0  0  0
   92.5759    2.6387    0.3016 H   0  0  0  0  0  0  0  0  0  0  0  0
   92.5281   -2.7291   -0.2148 H   0  0  0  0  0  0  0  0  0  0  0  0
   90.5416   -4.5156   -0.2714 H   0  0  0  0  0  0  0  0  0  0  0  0
   88.8958   -0.6315    0.0069 H   0  0  0  0  0  0  0  0  0  0  0  0
   87.9291   -4.3784   -0.1501 H   0  0  0  0  0  0  0  0  0  0  0  0
   96.5413   -3.2463    1.0871 C   0  0  0  0  0  0  0  0  0  0  0  0
   95.5638   -2.3543    0.8335 C   0  0  0  0  0  0  0  0  0  0  0  0
   96.2325   -1.1304    0.4350 C   0  0  0  0  0  0  0  0  0  0  0  0
   95.5488    0.0460    0.0663 C   0  0  0  0  0  0  0  0  0  0  0  0
   96.2035    1.2392   -0.2839 C   0  0  0  0  0  0  0  0  0  0  0  0
   95.6221    2.4691   -0.6871 C   0  0  0  0  0  0  0  0  0  0  0  0
   96.6416    3.3512   -0.9055 C   0  0  0  0  0  0  0  0  0  0  0  0
   97.8670    2.6759   -0.6470 C   0  0  0  0  0  0  0  0  0  0  0  0
   97.5502    1.4037   -0.2809 N   0  0  0  0  0  0  0  0  0  0  0  0
   99.1368    3.2287   -0.7430 C   0  0  0  0  0  0  0  0  0  0  0  0
  100.3639    2.6211   -0.5318 C   0  0  0  0  0  0  0  0  0  0  0  0
  101.6181    3.3453   -0.6497 C   0  0  0  0  0  0  0  0  0  0  0  0
  102.5956    2.4514   -0.4028 C   0  0  0  0  0  0  0  0  0  0  0  0
  101.9281    1.1902   -0.1430 C   0  0  0  0  0  0  0  0  0  0  0  0
  100.5931    1.3239   -0.2152 N   0  0  0  0  0  0  0  0  0  0  0  0
  102.6123   -0.0092    0.1404 C   0  0  0  0  0  0  0  0  0  0  0  0
  101.9584   -1.2182    0.4331 C   0  0  0  0  0  0  0  0  0  0  0  0
  102.5410   -2.4803    0.7172 C   0  0  0  0  0  0  0  0  0  0  0  0
  101.5214   -3.3561    0.9594 C   0  0  0  0  0  0  0  0  0  0  0  0
  100.2949   -2.6484    0.8204 C   0  0  0  0  0  0  0  0  0  0  0  0
  100.6111   -1.3643    0.4980 N   0  0  0  0  0  0  0  0  0  0  0  0
   99.0242   -3.1802    0.9937 C   0  0  0  0  0  0  0  0  0  0  0  0
   97.7966   -2.5552    0.8464 C   0  0  0  0  0  0  0  0  0  0  0  0
   97.5678   -1.2761    0.4623 N   0  0  0  0  0  0  0  0  0  0  0  0
   96.4576   -4.2670    1.4077 H   0  0  0  0  0  0  0  0  0  0  0  0
   94.5009   -2.4714    0.9134 H   0  0  0  0  0  0  0  0  0  0  0  0
   94.5705    2.6413   -0.8039 H   0  0  0  0  0  0  0  0  0  0  0  0
   96.5622    4.3739   -1.2194 H   0  0  0  0  0  0  0  0  0  0  0  0
   98.1906    0.6548   -0.0382 H   0  0  0  0  0  0  0  0  0  0  0  0
   99.1694    4.2734   -1.0224 H   0  0  0  0  0  0  0  0  0  0  0  0
  101.7012    4.3891   -0.8845 H   0  0  0  0  0  0  0  0  0  0  0  0
  103.6574    2.5980   -0.3731 H   0  0  0  0  0  0  0  0  0  0  0  0
  103.5935   -2.6833    0.7208 H   0  0  0  0  0  0  0  0  0  0  0  0
  101.6015   -4.3965    1.2078 H   0  0  0  0  0  0  0  0  0  0  0  0
   99.9700   -0.5984    0.3187 H   0  0  0  0  0  0  0  0  0  0  0  0
   98.9915   -4.2230    1.2797 H   0  0  0  0  0  0  0  0  0  0  0  0
  107.6286   -2.8200    2.0286 C   0  0  0  0  0  0  0  0  0  0  0  0
  106.6490   -2.0359    1.5380 C   0  0  0  0  0  0  0  0  0  0  0  0
  107.3129   -0.9955    0.7756 C   0  0  0  0  0  0  0  0  0  0  0  0
  106.6231    0.0238    0.0886 C   0  0  0  0  0  0  0  0  0  0  0  0
  107.2666    1.0512   -0.6221 C   0  0  0  0  0  0  0  0  0  0  0  0
  106.6694    2.0994   -1.3695 C   0  0  0  0  0  0  0  0  0  0  0  0
  107.6786    2.8629   -1.8828 C   0  0  0  0  0  0  0  0  0  0  0  0
  108.9134    2.2932   -1.4644 C   0  0  0  0  0  0  0  0  0  0  0  0
  108.6121    1.2017   -0.7084 N   0  0  0  0  0  0  0  0  0  0  0  0
  110.1793    2.7677   -1.7788 C   0  0  0  0  0  0  0  0  0  0  0  0
  111.4103    2.2388   -1.4251 C   0  0  0  0  0  0  0  0  0  0  0  0
  112.6643    2.8412   -1.8451 C   0  0  0  0  0  0  0  0  0  0  0  0
  113.6443    2.0636   -1.3447 C   0  0  0  0  0  0  0  0  0  0  0  0
  112.9772    0.9961   -0.6227 C   0  0  0  0  0  0  0  0  0  0  0  0
  111.6413    1.1267   -0.6873 N   0  0  0  0  0  0  0  0  0  0  0  0
  113.6634   -0.0440    0.0334 C   0  0  0  0  0  0  0  0  0  0  0  0
  113.0213   -1.0956    0.7067 C   0  0  0  0  0  0  0  0  0  0  0  0
  113.6208   -2.1718    1.4119 C   0  0  0  0  0  0  0  0  0  0  0  0
  112.6121   -2.9371    1.9237 C   0  0  0  0  0  0  0  0  0  0  0  0
  111.3763   -2.3416    1.5452 C   0  0  0  0  0  0  0  0  0  0  0  0
  111.6759   -1.2364    0.8095 N   0  0  0  0  0  0  0  0  0  0  0  0
  110.1103   -2.7976    1.8865 C   0  0  0  0  0  0  0  0  0  0  0  0
  108.8806   -2.2455    1.5661 C   0  0  0  0  0  0  0  0  0  0  0  0
  108.6479   -1.1409    0.8164 N   0  0  0  0  0  0  0  0  0  0  0  0
  107.5486   -3.6955    2.6440 H   0  0  0  0  0  0  0  0  0  0  0  0
  105.5879   -2.1120    1.6717 H   0  0  0  0  0  0  0  0  0  0  0  0
  105.6141    2.2329   -1.5028 H   0  0  0  0  0  0  0  0  0  0  0  0
  107.5862    3.7369   -2.4977 H   0  0  0  0  0  0  0  0  0  0  0  0
  109.2666    0.5661   -0.2652 H   0  0  0  0  0  0  0  0  0  0  0  0
  110.2052    3.6625   -2.3861 H   0  0  0  0  0  0  0  0  0  0  0  0
  112.7455    3.7302   -2.4407 H   0  0  0  0  0  0  0  0  0  0  0  0
  114.7076    2.1615   -1.4465 H   0  0  0  0  0  0  0  0  0  0  0  0
  114.6774   -2.3222    1.5173 H   0  0  0  0  0  0  0  0  0  0  0  0
  112.7052   -3.8288    2.5126 H   0  0  0  0  0  0  0  0  0  0  0  0
  111.0202   -0.5846    0.3922 H   0  0  0  0  0  0  0  0  0  0  0  0
  110.0837   -3.6957    2.4889 H   0  0  0  0  0  0  0  0  0  0  0  0
  1  2  2  0  0  0  0
  2  3  1  0  0  0  0
  3  4  4  0  0  0  0
  4  5  4  0  0  0  0
  5  6  4  0  0  0  0
  6  7  2  0  0  0  0
  7  8  4  0  0  0  0
  5  9  4  0  0  0  0
  8  9  4  0  0  0  0
  8 10  4  0  0  0  0
 10 11  4  0  0  0  0
 11 12  1  0  0  0  0
 12 13  2  0  0  0  0
 13 14  1  0  0  0  0
 11 15  4  0  0  0  0
 14 15  4  0  0  0  0
 14 16  4  0  0  0  0
 16 17  4  0  0  0  0
 17 18  4  0  0  0  0
 18 19  2  0  0  0  0
 19 20  4  0  0  0  0
 17 21  4  0  0  0  0
 20 21  4  0  0  0  0
 20 22  4  0  0  0  0
  1 23  1  0  0  0  0
 22 23  4  0  0  0  0
  3 24  4  0  0  0  0
 23 24  4  0  0  0  0
  1 25  1  0  0  0  0
  2 26  1  0  0  0  0
  6 27  1  0  0  0  0
  7 28  1  0  0  0  0
  9 29  1  0  0  0  0
 10 30  1  0  0  0  0
 12 31  1  0  0  0  0
 13 32  1  0  0  0  0
 16 33  1  0  0  0  0
 18 34  1  0  0  0  0
 19 35  1  0  0  0  0
 21 36  1  0  0  0  0
 22 37  1  0  0  0  0
 38 39  2  0  0  0  0
 39 40  1  0  0  0  0
 40 41  4  0  0  0  0
 41 42  4  0  0  0  0
 42 43  4  0  0  0  0
 43 44  2  0  0  0  0
 44 45  4  0  0  0  0
 42 46  4  0  0  0  0
 45 46  4  0  0  0  0
 45 47  4  0  0  0  0
 47 48  4  0  0  0  0
 48 49  1  0  0  0  0
 49 50  2  0  0  0  0
 50 51  1  0  0  0  0
 48 52  4  0  0  0  0
 51 52  4  0  0  0  0
 51 53  4  0  0  0  0
 53 54  4  0  0  0  0
 54 55  4  0  0  0  0
 55 56  2  0  0  0  0
 56 57  4  0  0  0  0
 54 58  4  0  0  0  0
 57 58  4  0  0  0  0
 57 59  4  0  0  0  0
 38 60  1  0  0  0  0
 59 60  4  0  0  0  0
 40 61  4  0  0  0  0
 60 61  4  0  0  0  0
 38 62  1  0  0  0  0
 39 63  1  0  0  0  0
 43 64  1  0  0  0  0
 44 65  1  0  0  0  0
 46 66  1  0  0  0  0
 47 67  1  0  0  0  0
 49 68  1  0  0  0  0
 50 69  1  0  0  0  0
 53 70  1  0  0  0  0
 55 71  1  0  0  0  0
 56 72  1  0  0  0  0
 58 73  1  0  0  0  0
 59 74  1  0  0  0  0
  4 75  1  0  0  0  0
 75 76  3  0  0  0  0
 77 78  3  0  0  0  0
 79 80  3  0  0  0  0
 81 82  3  0  0  0  0
 83 84  3  0  0  0  0
 41 86  1  0  0  0  0
 85 86  3  0  0  0  0
 87 88  2  0  0  0  0
 88 89  1  0  0  0  0
 76 90  1  0  0  0  0
 89 90  4  0  0  0  0
 90 91  4  0  0  0  0
 91 92  4  0  0  0  0
 92 93  2  0  0  0  0
 93 94  4  0  0  0  0
 91 95  4  0  0  0  0
 94 95  4  0  0  0  0
 94 96  4  0  0  0  0
 96 97  4  0  0  0  0
 97 98  1  0  0  0  0
 98 99  2  0  0  0  0
 99100  1  0  0  0  0
 97101  4  0  0  0  0
100101  4  0  0  0  0
 77102  1  0  0  0  0
100102  4  0  0  0  0
102103  4  0  0  0  0
103104  4  0  0  0  0
104105  2  0  0  0  0
105106  4  0  0  0  0
103107  4  0  0  0  0
106107  4  0  0  0  0
106108  4  0  0  0  0
 87109  1  0  0  0  0
108109  4  0  0  0  0
 89110  4  0  0  0  0
109110  4  0  0  0  0
 87111  1  0  0  0  0
 88112  1  0  0  0  0
 92113  1  0  0  0  0
 93114  1  0  0  0  0
 95115  1  0  0  0  0
 96116  1  0  0  0  0
 98117  1  0  0  0  0
 99118  1  0  0  0  0
104119  1  0  0  0  0
105120  1  0  0  0  0
107121  1  0  0  0  0
108122  1  0  0  0  0
123124  2  0  0  0  0
124125  1  0  0  0  0
 78126  1  0  0  0  0
125126  4  0  0  0  0
126127  4  0  0  0  0
127128  4  0  0  0  0
128129  2  0  0  0  0
129130  4  0  0  0  0
127131  4  0  0  0  0
130131  4  0  0  0  0
130132  4  0  0  0  0
132133  4  0  0  0  0
133134  1  0  0  0  0
134135  2  0  0  0  0
135136  1  0  0  0  0
133137  4  0  0  0  0
136137  4  0  0  0  0
 79138  1  0  0  0  0
136138  4  0  0  0  0
138139  4  0  0  0  0
139140  4  0  0  0  0
140141  2  0  0  0  0
141142  4  0  0  0  0
139143  4  0  0  0  0
142143  4  0  0  0  0
142144  4  0  0  0  0
123145  1  0  0  0  0
144145  4  0  0  0  0
125146  4  0  0  0  0
145146  4  0  0  0  0
123147  1  0  0  0  0
124148  1  0  0  0  0
128149  1  0  0  0  0
129150  1  0  0  0  0
131151  1  0  0  0  0
132152  1  0  0  0  0
134153  1  0  0  0  0
135154  1  0  0  0  0
140155  1  0  0  0  0
141156  1  0  0  0  0
143157  1  0  0  0  0
144158  1  0  0  0  0
159160  2  0  0  0  0
160161  1  0  0  0  0
 80162  1  0  0  0  0
161162  4  0  0  0  0
162163  4  0  0  0  0
163164  4  0  0  0  0
164165  2  0  0  0  0
165166  4  0  0  0  0
163167  4  0  0  0  0
166167  4  0  0  0  0
166168  4  0  0  0  0
168169  4  0  0  0  0
169170  1  0  0  0  0
170171  2  0  0  0  0
171172  1  0  0  0  0
169173  4  0  0  0  0
172173  4  0  0  0  0
 81174  1  0  0  0  0
172174  4  0  0  0  0
174175  4  0  0  0  0
175176  4  0  0  0  0
176177  2  0  0  0  0
177178  4  0  0  0  0
175179  4  0  0  0  0
178179  4  0  0  0  0
178180  4  0  0  0  0
159181  1  0  0  0  0
180181  4  0  0  0  0
161182  4  0  0  0  0
181182  4  0  0  0  0
159183  1  0  0  0  0
160184  1  0  0  0  0
164185  1  0  0  0  0
165186  1  0  0  0  0
167187  1  0  0  0  0
168188  1  0  0  0  0
170189  1  0  0  0  0
171190  1  0  0  0  0
176191  1  0  0  0  0
177192  1  0  0  0  0
179193  1  0  0  0  0
180194  1  0  0  0  0
195196  2  0  0  0  0
196197  1  0  0  0  0
 82198  1  0  0  0  0
197198  4  0  0  0  0
198199  4  0  0  0  0
199200  4  0  0  0  0
200201  2  0  0  0  0
201202  4  0  0  0  0
199203  4  0  0  0  0
202203  4  0  0  0  0
202204  4  0  0  0  0
204205  4  0  0  0  0
205206  1  0  0  0  0
206207  2  0  0  0  0
207208  1  0  0  0  0
205209  4  0  0  0  0
208209  4  0  0  0  0
 83210  1  0  0  0  0
208210  4  0  0  0  0
210211  4  0  0  0  0
211212  4  0  0  0  0
212213  2  0  0  0  0
213214  4  0  0  0  0
211215  4  0  0  0  0
214215  4  0  0  0  0
214216  4  0  0  0  0
195217  1  0  0  0  0
216217  4  0  0  0  0
197218  4  0  0  0  0
217218  4  0  0  0  0
195219  1  0  0  0  0
196220  1  0  0  0  0
200221  1  0  0  0  0
201222  1  0  0  0  0
203223  1  0  0  0  0
204224  1  0  0  0  0
206225  1  0  0  0  0
207226  1  0  0  0  0
212227  1  0  0  0  0
213228  1  0  0  0  0
215229  1  0  0  0  0
216230  1  0  0  0  0
231232  2  0  0  0  0
232233  1  0  0  0  0
 84234  1  0  0  0  0
233234  4  0  0  0  0
234235  4  0  0  0  0
235236  4  0  0  0  0
236237  2  0  0  0  0
237238  4  0  0  0  0
235239  4  0  0  0  0
238239  4  0  0  0  0
238240  4  0  0  0  0
240241  4  0  0  0  0
241242  1  0  0  0  0
242243  2  0  0  0  0
243244  1  0  0  0  0
241245  4  0  0  0  0
244245  4  0  0  0  0
 85246  1  0  0  0  0
244246  4  0  0  0  0
246247  4  0  0  0  0
247248  4  0  0  0  0
248249  2  0  0  0  0
249250  4  0  0  0  0
247251  4  0  0  0  0
250251  4  0  0  0  0
250252  4  0  0  0  0
231253  1  0  0  0  0
252253  4  0  0  0  0
233254  4  0  0  0  0
253254  4  0  0  0  0
231255  1  0  0  0  0
232256  1  0  0  0  0
236257  1  0  0  0  0
237258  1  0  0  0  0
239259  1  0  0  0  0
240260  1  0  0  0  0
242261  1  0  0  0  0
243262  1  0  0  0  0
248263  1  0  0  0  0
249264  1  0  0  0  0
251265  1  0  0  0  0
252266  1  0  0  0  0
M  END
