78

Cu 6.651751 -0.053891 0.024324
C 9.130937 -3.514378 0.049588
C 10.096418 -2.565484 0.086835
C 9.424832 -1.297371 0.088879
C 10.088669 -0.062070 0.127179
C 9.430755 1.177134 0.120677
C 10.107293 2.442150 0.154311
C 9.146039 3.395662 0.127091
C 7.885551 2.711108 0.077690
N 8.092581 1.366175 0.076254
C 6.658482 3.348673 0.036426
C 5.429639 2.714223 -0.005581
C 4.166956 3.400833 -0.044184
C 3.206675 2.448636 -0.069601
C 3.881570 1.179093 -0.047549
N 5.223952 1.372966 -0.010327
C 3.237251 -0.045707 -0.061032
C 3.874980 -1.273911 -0.045822
C 3.193758 -2.540126 -0.062882
C 4.149609 -3.497025 -0.047203
C 5.415918 -2.816597 -0.019960
N 5.216558 -1.474413 -0.018391
C 6.642648 -3.456244 -0.001475
C 7.872798 -2.823960 0.029503
N 8.085463 -1.480022 0.051866
H 9.241220 -4.581432 0.036627
H 11.161764 -2.690179 0.110247
H 11.172631 2.562235 0.192577
H 9.260805 4.462271 0.139158
H 6.661043 4.429206 0.039111
H 4.054682 4.467977 -0.050131
H 2.141043 2.570504 -0.100707
H 2.157244 -0.042756 -0.086831
H 2.127353 -2.657081 -0.084316
H 4.031883 -4.563578 -0.052767
H 6.641049 -4.536755 -0.010632
C 11.484852 -0.065033 0.170683
C 12.704225 -0.052819 0.205735
C 14.040126 -0.045252 0.236297
C 15.264207 -0.037656 0.250416
C 16.600402 -0.024281 0.246258
C 17.820086 -0.010120 0.223959
Cu 22.646008 0.053907 -0.048048
C 20.122394 3.475794 0.174782
C 19.171649 2.512096 0.212247
C 19.860038 1.254602 0.149701
C 19.215976 0.008414 0.175799
C 19.893379 -1.219905 0.151712
C 19.238909 -2.495215 0.217639
C 20.214596 -3.433371 0.174695
C 21.461447 -2.729377 0.075952
N 21.232566 -1.387969 0.069117
C 22.695377 -3.348093 -0.016565
C 23.908879 -2.695089 -0.141326
C 25.176713 -3.361700 -0.265363
C 26.116054 -2.394579 -0.374151
C 25.423827 -1.135809 -0.311397
N 24.091313 -1.350887 -0.173238
C 26.045458 0.099243 -0.372061
C 25.392521 1.316997 -0.292544
C 26.052998 2.593610 -0.333889
C 25.088569 3.535123 -0.219955
C 23.837219 2.835047 -0.113742
N 24.054293 1.496361 -0.159349
C 22.606295 3.455858 0.004152
C 21.387969 2.805145 0.082929
N 21.194563 1.458195 0.072626
H 19.997017 4.540888 0.202533
H 18.106437 2.620691 0.278821
H 18.177298 -2.631789 0.289692
H 20.117698 -4.501430 0.202642
H 22.710535 -4.428423 -0.000957
H 25.306567 -4.426841 -0.269081
H 27.178115 -2.499798 -0.484906
H 27.120096 0.113915 -0.481613
H 27.112841 2.727303 -0.434877
H 25.191111 4.603177 -0.209136
H 22.593651 4.536116 0.026003
