259
 xtb: 6.4.1 (bd6e46d)
Cu       51.02976642300843    0.02551863397346   -0.00609173083664
C        53.52057574922673   -1.56295736309324    3.05458976304754
C        54.48358947174356   -1.10147135299209    2.22192507145807
C        53.81051299088254   -0.53516955411198    1.08811013042060
C        54.47102148865041    0.04227581440719   -0.00533196731269
C        53.80893747239857    0.61864538897394   -1.09836203561651
C        54.48022602764157    1.19157951170513   -2.22987532778053
C        53.51571854461317    1.65067814373466   -3.06211080844008
C        52.25695858079469    1.35145186593122   -2.44103899161408
N        52.46875749276085    0.72237462645962   -1.25302190484677
C        51.02736225667812    1.66673602762683   -2.99158736678284
C        49.79942769061724    1.36848880786077   -2.42835684341145
C        48.53394451403090    1.70121751768532   -3.02417594605003
C        47.57627893893221    1.23466068792765   -2.19061295699648
C        48.25532274286267    0.61629925687437   -1.08423767295123
N        49.59745711343446    0.71644333415767   -1.25504213721628
C        47.61512607508260    0.01058504658499   -0.01710658224139
C        48.25740739134248   -0.58504473404215    1.05443443605932
C        47.58041817394872   -1.20722272951582    2.15996491484888
C        48.53946849946649   -1.65772660516028    3.00071543931866
C        49.80379890496452   -1.31246955942814    2.40955760408169
N        49.59983511388944   -0.66864122626593    1.23275743734148
C        51.03236641368620   -1.59621416817985    2.97891808550070
C        52.26099212879269   -1.27296488187629    2.43084510237031
N        52.47084099910467   -0.64636907449776    1.24179745472721
H        53.63381723198445   -2.03077300934231    4.01039842192406
H        55.54846013093624   -1.10632528424044    2.35433420098986
H        55.54543180335392    1.20727415898534   -2.36410854667708
H        53.62794267206431    2.12641541819034   -4.01966646851733
H        51.02861745204585    2.16783705233340   -3.95188886846411
H        48.41957536255341    2.20672840950540   -3.96627947789166
H        46.51146604067414    1.28357265253938   -2.30193168430097
H        46.53612563938076    0.00564079811496   -0.02203676321592
H        46.51555607725359   -1.26463203472426    2.26192518016145
H        48.42630256895023   -2.15555709794202    3.94088011754714
H        51.03422698517056   -2.08899889061912    3.93760266924329
Cu      116.50249088409588    0.03658416718878   -0.00963850585194
C       114.01511385512759    2.03519299276252    2.80273105949500
C       113.05193969647642    1.46532226705354    2.04048402163022
C       113.72459882930447    0.75074243109385    0.99391203692312
C       113.06241554984366    0.03335760001497   -0.01161831707818
C       113.72550644315540   -0.68419156691938   -1.01646700137970
C       113.05382760016953   -1.40081379586733   -2.06227959586588
C       114.01771261001664   -1.97043880335262   -2.82378885782521
C       115.27611388958360   -1.59493852074178   -2.24562383755811
N       115.06599787178190   -0.81254256226255   -1.15199897407803
C       116.50425223075803   -1.98597211466085   -2.74769572593357
C       117.73108251208167   -1.61848011036187   -2.22575213864651
C       118.99591220992059   -2.03166428997854   -2.76976336957279
C       119.95380510365341   -1.46230804265092   -2.00315269551345
C       119.27498555642875   -0.70026871620245   -0.99033122008270
N       117.93250657484450   -0.81800244024030   -1.14775236251995
C       119.91692847920211    0.04011311854628   -0.01337326010565
C       119.27397948771475    0.77873690902085    0.96414140203480
C       119.95182161020865    1.54300880117858    1.97596261325007
C       118.99322843827100    2.10963900682224    2.74359407145941
C       117.72890910737007    1.69252380842358    2.20123649614833
N       117.93120701359278    0.89308541065171    1.12322648123939
C       116.50172155558886    2.05612724560551    2.72502913762173
C       115.27402691136599    1.66237202154647    2.22391021387622
N       115.06479309253980    0.88045779453143    1.12996964413744
H       113.90280225715711    2.61615451157968    3.69873750205977
H       111.98671107760893    1.48621064942107    2.17700889523002
H       111.98679496588802   -1.41611077324278   -2.20254576352466
H       113.90276588700983   -2.54649676574039   -3.72390271168825
H       116.50124730617627   -2.58504244951228   -3.64954472067021
H       119.10921722438870   -2.63383451489619   -3.65459787856134
H       121.01897723926749   -1.51890144517887   -2.11347242177634
H       120.99657431115673    0.03407439018376   -0.01227856285253
H       121.01900315664606    1.58984696031578    2.08669308104781
H       119.10932595236550    2.70759084683060    3.62590538872469
H       116.50159942720278    2.65702158694217    3.62250562707104
C        55.87347277100423    0.04213468073762   -0.00597120590305
C        57.08647159437215    0.04339223043997   -0.00757065709072
C        66.78466529503804    0.02946554112733   -0.02461765493900
C        67.99834918276686    0.03442808455195   -0.02494721505629
C        77.70084859309536    0.05408059622662   -0.02313038031671
C        78.91481584406836    0.05349000732268   -0.02547274438596
C        88.61687209476533    0.04833150987917   -0.03089716907087
C        89.83080988797538    0.04384116126220   -0.03064369596505
C        99.53369909090674    0.03594233279720   -0.02237289743572
C       100.74749429219388    0.03622251005437   -0.01909983174751
C       110.44715170079466    0.03467403920646   -0.01591385664450
C       111.66018281001169    0.03379122413760   -0.01254849876151
Cu       61.93386804537631    0.03908338786456   -0.01469279546498
C        59.44948496798669   -2.83491085585298    1.89951204964373
C        58.48348074795703   -2.06360993629808    1.34643447384844
C        59.15223871955486   -0.98926532784996    0.67055389129726
C        58.48831653016556    0.04210550916736   -0.00829418410256
C        59.15288670943669    1.07146986360063   -0.68956846938677
C        58.48470830847580    2.14760448830883   -1.36323609322302
C        59.45081495372120    2.91516104722513   -1.92135928311729
C        60.70640044402852    2.30950633474751   -1.58177984715050
N        60.49233888349281    1.19895257214828   -0.82523243030280
C        61.93539872665433    2.79174627571951   -1.99348018920054
C        63.16369321102665    2.24497944733274   -1.66944064804366
C        64.41871193212219    2.75684679621462   -2.13949705274141
C        65.38453596766240    1.97931545488636   -1.59486923970158
C        64.71748616887297    1.00048843603900   -0.78586016588107
N        63.37772377210743    1.17386379563835   -0.85807724278022
C        65.38349339193586    0.02956037767275   -0.02343480421085
C        64.71809558185200   -0.94007391372127    0.74095724506992
C        65.38511374828002   -1.92145545502416    1.54690003097529
C        64.41884619289611   -2.69548560611511    2.09572453475530
C        63.16363471107062   -2.17897517274960    1.63119740959794
N        63.37824150448307   -1.10822166771961    0.81880622139695
C        61.93459769079218   -2.72085973891494    1.96049633286739
C        60.70564578505223   -2.23332039211926    1.55473518172986
N        60.49221847264334   -1.12099982118239    0.80063612834605
H        59.33757595260082   -3.71731408168687    2.49919642042063
H        57.41823947155241   -2.19119792862682    1.37977686187900
H        57.42353774555977    2.28083279295008   -1.39615255254236
H        59.34564943900271    3.79632327809314   -2.52547391115320
H        61.94002157339118    3.65599861006733   -2.64074365415578
H        64.53127236523702    3.57884499628381   -2.81663543158585
H        66.44979600768249    2.02506719339046   -1.73572225756115
H        66.44713433286599   -1.98067359193261    1.68494167727717
H        64.52493843423566   -3.52518823089761    2.77248844125869
H        61.93200850431911   -3.58978207070715    2.60508869324364
Cu       72.84764953628822    0.04875321305319   -0.02654848636075
C        70.37343935584556   -3.29895903225339    0.85532963648813
C        69.40489910919453   -2.39821426228572    0.56375663633568
C        70.06775325506567   -1.15800613690109    0.28071990749490
C        69.39939869707608    0.03686657183096   -0.02530517634186
C        70.06296161486357    1.23463666170628   -0.33064482755482
C        69.39492915262386    2.47196214967483   -0.61417313833511
C        70.35979533973648    3.37715230950682   -0.90419589367711
C        71.61527417618375    2.69265239433881   -0.78872561542211
N        71.40201806325646    1.39867296866199   -0.42657932117162
C        72.84278578706106    3.27815501669637   -1.04060594878878
C        74.07258130687212    2.65792814079722   -0.91414520522967
C        75.32507179748988    3.28905919505887   -1.21549166614655
C        76.29339939905314    2.38330141633693   -0.93919574424976
C        75.63092676226916    1.20504620583462   -0.45956562337624
N        74.29116026691717    1.39082964806824   -0.46888333255593
C        76.29996612950092    0.05208108932743   -0.02135578658862
C        75.63546457396463   -1.10325183068303    0.41757494958238
C        76.30246841701178   -2.27819185786432    0.89909555807221
C        75.33774482039135   -3.18806728136147    1.17449514454617
C        74.08293569976506   -2.56281843599084    0.87060044065130
N        74.29641827902026   -1.29446313849239    0.42483487394617
C        72.85580627154481   -3.18876068906235    0.99471027969288
C        71.62600886093030   -2.60893531607820    0.74090031579349
N        71.40733939119636   -1.31549923034136    0.37742781761449
H        70.27044403089354   -4.32793963879916    1.15250663923122
H        68.34498088576261   -2.54270327886587    0.54434774334185
H        68.33300777410095    2.60545771907331   -0.58965821335533
H        70.25011616254292    4.40024202037972   -1.19508406428121
H        72.84034924872215    4.29686500543971   -1.39367212200677
H        75.43013143795503    4.27476813018003   -1.62098035798711
H        77.35500853760732    2.47079146019482   -1.07097481705205
H        77.36577106430872   -2.36292957431882    1.03544515612753
H        75.44922144175632   -4.17625763026984    1.58396787921109
H        72.86008717724967   -4.21197019537160    1.35192556383582
Cu       83.76632162495036    0.05105577617181   -0.03357400763181
C        81.28226088002566   -3.39945967973081   -0.02361657346855
C        80.31629918229456   -2.45184871703508   -0.08166673263268
C        80.98164555835662   -1.18192515793195   -0.03818884740545
C        80.31570376125343    0.05321184690186   -0.02777703800530
C        80.98270589523621    1.28777312014491   -0.01966340040261
C        80.31863470612312    2.55840424154339    0.02171431458324
C        81.28547554719748    3.50500294046069   -0.03806031900320
C        82.53875418106588    2.81022289543721   -0.10504865400262
N        82.32193889170796    1.46695447593956   -0.07961461557331
C        83.76759510735991    3.43670453334720   -0.20860036913480
C        84.99580621995719    2.80157340203077   -0.24553609259040
C        86.24981246020171    3.48414942077936   -0.38497813092999
C        87.21574797255232    2.53559289900514   -0.34409367636279
C        86.55030985187481    1.27703410897129   -0.16951080930225
N        85.21134317354939    1.46271345459465   -0.13077999516457
C        87.21601842619393    0.04956862239317   -0.03103441977067
C        86.54906664982660   -1.17713041258096    0.10865812616823
C        87.21320259482285   -2.43603450907195    0.28560107220636
C        86.24632193197888   -3.38354991905935    0.32795158463720
C        84.99306788863809   -2.69997243793261    0.18684644760422
N        85.20989045946173   -1.36161028867906    0.06965495216078
C        83.76425585210661   -3.33384851530023    0.14907951017832
C        82.53618912549923   -2.70600930861943    0.04464239600123
N        82.32065973399541   -1.36244901214734    0.02054801489395
H        81.17512122089296   -4.46675037347624   -0.04125971368464
H        79.25530893833945   -2.57965831655460   -0.16598205968307
H        79.25661514236626    2.68600595705521    0.10816754195549
H        81.17744786396142    4.57182989096057   -0.01833358695670
H        83.76718971105612    4.51687151741626   -0.24882599186619
H        86.35641311867536    4.54679780734002   -0.48642189432657
H        88.27597833819041    2.65646905167917   -0.42793077310006
H        88.27431159615061   -2.55546549642914    0.37422954588215
H        86.35358767360663   -4.44444977904548    0.43748950314356
H        83.76432894680845   -4.41346770392314    0.19545673169005
Cu       94.68330419130731    0.03754333135468   -0.02329671290683
C        92.19856890963477   -3.30232605264014   -0.88310399946086
C        91.23256192634638   -2.37026737978935   -0.70325492862247
C        91.89789181237438   -1.15104040984747   -0.34597406594348
C        91.23164568432364    0.04235252985551   -0.02936188556198
C        91.89941524894522    1.23407231551641    0.29054745151883
C        91.23527415780883    2.45361162388160    0.64894533811326
C        92.20249128241264    3.38327230542195    0.83449583430716
C        93.45574119946309    2.72648729191990    0.59875616161203
N        93.23909307455760    1.42023478045398    0.28366782809110
C        94.68447017813247    3.35805814673443    0.66217261950901
C        95.91244972868742    2.75191167640960    0.46920451958000
C        97.16667272938670    3.44673430096224    0.51356434578306
C        98.13273645916316    2.51876039152007    0.31413133137789
C        97.46674930036062    1.25809002072487    0.15820376592670
N        96.12740564743829    1.42775015216657    0.23962649071939
C        98.13266784659558    0.03675558509393   -0.02284659385581
C        97.46525041596047   -1.18382203719589   -0.20367076035346
C        98.12942989738060   -2.44574861719875   -0.35693784563889
C        97.16208832521031   -3.37288737458396   -0.55403844245966
C        95.90884150028542   -2.67613338892704   -0.51184766318456
N        96.12568582242373   -1.35196006312620   -0.28514328346973
C        94.68019249300266   -3.28102373116231   -0.70463649391799
C        93.45236875356476   -2.64723501984016   -0.64544680209724
N        93.23726240906274   -1.34004545736502   -0.33430514706233
H        92.08951307656531   -4.33407414596576   -1.15322287819870
H        90.17015603941509   -2.47392164081717   -0.81089788106597
H        90.17340733091855    2.56128807729177    0.75471763334087
H        92.09563021214142    4.41672162049125    1.10708813548758
H        94.68497190010305    4.41787783498274    0.87870783486414
H        97.27481941955627    4.50346004084270    0.66961505770094
H        99.19468638922275    2.65719917168546    0.25856622630971
H        99.19065625421028   -2.58467625050980   -0.30316348228564
H        97.26786610653852   -4.42868541598612   -0.70946428520156
H        94.67848782147290   -4.33955257923763   -0.91937527635285
Cu      105.59954857243082    0.03368799502241   -0.01674783541164
C       103.11303962809426   -2.92410745756566   -1.79564150874954
C       102.14704474095852   -2.08898421016989   -1.34448869073834
C       102.81400482106878   -1.01916013974073   -0.66003183665833
C       102.14865938154119    0.03572122213046   -0.01730796423219
C       102.81404188458377    1.08960788378465    0.62690879134486
C       102.14744485213659    2.15773923883264    1.31430138806414
C       103.11374860799282    2.99154055947089    1.76732994948958
C       104.36893322229236    2.42594579067741    1.36350150191926
N       104.15370850656377    1.26792099822780    0.68203203970688
C       105.59836985408774    3.00332110121480    1.62554443441418
C       106.82804968679216    2.47458111625173    1.27707382505094
C       108.08411497570955    3.11330318836940    1.54787467095628
C       109.05020395558024    2.28455109783824    1.08530535246369
C       108.38189160226979    1.13840911056863    0.53904264343833
N       107.04249902484310    1.28316325705522    0.65569692569620
C       109.04544242958625    0.03547804968670   -0.01745762749348
C       108.38173844973453   -1.06661865359900   -0.57531670899708
C       109.04993118500525   -2.21162959544941   -1.12405627537466
C       108.08375733514721   -3.04002778447490   -1.58698511934824
C       106.82770134171464   -2.40247372440872   -1.31343420434288
N       107.04220518426506   -1.21192208678644   -0.69102287467158
C       105.59798015819608   -2.93309289315487   -1.65884727750096
C       104.36844759554964   -2.35696437268634   -1.39479066170932
N       104.15353469056696   -1.19760454322327   -0.71566370280229
H       103.00441096060786   -3.82858114626886   -2.36134038087149
H       101.08412408323372   -2.16098841751088   -1.47072358464778
H       101.08369186910744    2.22967229072093    1.44058793913394
H       103.00401546269831    3.89501498331812    2.33566187957828
H       105.59626280324147    3.94274638688616    2.16120692561209
H       108.19122686886418    4.06196422885055    2.03884090577386
H       110.11201810302755    2.42038314773540    1.10048250155370
H       110.11274530159906   -2.34270551619992   -1.14180682462718
H       108.19228796383847   -3.98440404813407   -2.08070990878471
H       105.59768782705594   -3.87105274806275   -2.19403731870417
