
  xtb     11212119083D
 xtb: 6.4.1 (bd6e46d)
 76 91  0     0  0            999 V2000
    7.9481   -0.0519    0.0034 Co  0  0  0  0  0  0  0  0  0  0  0  0
   10.4225   -3.4784    0.0751 C   0  0  0  0  0  0  0  0  0  0  0  0
   11.3811   -2.5250    0.0624 C   0  0  0  0  0  0  0  0  0  0  0  0
   10.6993   -1.2671    0.0352 C   0  0  0  0  0  0  0  0  0  0  0  0
   11.3716   -0.0436    0.0264 C   0  0  0  0  0  0  0  0  0  0  0  0
   10.6921    1.1763    0.0277 C   0  0  0  0  0  0  0  0  0  0  0  0
   11.3675    2.4381    0.0440 C   0  0  0  0  0  0  0  0  0  0  0  0
   10.4040    3.3863    0.0698 C   0  0  0  0  0  0  0  0  0  0  0  0
    9.1513    2.6938    0.0634 C   0  0  0  0  0  0  0  0  0  0  0  0
    9.3388    1.3367    0.0353 N   0  0  0  0  0  0  0  0  0  0  0  0
    7.9354    3.3421    0.0778 C   0  0  0  0  0  0  0  0  0  0  0  0
    6.7250    2.6850    0.0415 C   0  0  0  0  0  0  0  0  0  0  0  0
    5.4636    3.3665    0.0271 C   0  0  0  0  0  0  0  0  0  0  0  0
    4.5121    2.4104   -0.0383 C   0  0  0  0  0  0  0  0  0  0  0  0
    5.1994    1.1519   -0.0565 C   0  0  0  0  0  0  0  0  0  0  0  0
    6.5535    1.3295   -0.0063 N   0  0  0  0  0  0  0  0  0  0  0  0
    4.5470   -0.0610   -0.1095 C   0  0  0  0  0  0  0  0  0  0  0  0
    5.2064   -1.2712   -0.0957 C   0  0  0  0  0  0  0  0  0  0  0  0
    4.5271   -2.5338   -0.1208 C   0  0  0  0  0  0  0  0  0  0  0  0
    5.4841   -3.4854   -0.0698 C   0  0  0  0  0  0  0  0  0  0  0  0
    6.7407   -2.7969   -0.0203 C   0  0  0  0  0  0  0  0  0  0  0  0
    6.5611   -1.4418   -0.0379 N   0  0  0  0  0  0  0  0  0  0  0  0
    7.9541   -3.4475    0.0306 C   0  0  0  0  0  0  0  0  0  0  0  0
    9.1662   -2.7927    0.0499 C   0  0  0  0  0  0  0  0  0  0  0  0
    9.3470   -1.4345    0.0285 N   0  0  0  0  0  0  0  0  0  0  0  0
   10.5330   -4.5452    0.0960 H   0  0  0  0  0  0  0  0  0  0  0  0
   12.4479   -2.6366    0.0710 H   0  0  0  0  0  0  0  0  0  0  0  0
   12.4335    2.5560    0.0386 H   0  0  0  0  0  0  0  0  0  0  0  0
   10.5089    4.4536    0.0893 H   0  0  0  0  0  0  0  0  0  0  0  0
    7.9326    4.4211    0.1080 H   0  0  0  0  0  0  0  0  0  0  0  0
    5.3493    4.4328    0.0599 H   0  0  0  0  0  0  0  0  0  0  0  0
    3.4452    2.5194   -0.0696 H   0  0  0  0  0  0  0  0  0  0  0  0
    3.4686   -0.0633   -0.1520 H   0  0  0  0  0  0  0  0  0  0  0  0
    3.4615   -2.6488   -0.1675 H   0  0  0  0  0  0  0  0  0  0  0  0
    5.3765   -4.5528   -0.0672 H   0  0  0  0  0  0  0  0  0  0  0  0
    7.9567   -4.5269    0.0457 H   0  0  0  0  0  0  0  0  0  0  0  0
   12.7699   -0.0380    0.0343 C   0  0  0  0  0  0  0  0  0  0  0  0
   13.9873   -0.0374    0.0562 C   0  0  0  0  0  0  0  0  0  0  0  0
   15.3298   -0.0274    0.0765 C   0  0  0  0  0  0  0  0  0  0  0  0
   16.5471   -0.0223    0.1075 C   0  0  0  0  0  0  0  0  0  0  0  0
   21.3479    0.0551   -0.0118 Co  0  0  0  0  0  0  0  0  0  0  0  0
   18.8701    3.4260    0.4660 C   0  0  0  0  0  0  0  0  0  0  0  0
   17.9157    2.4755    0.3399 C   0  0  0  0  0  0  0  0  0  0  0  0
   18.6033    1.2302    0.1832 C   0  0  0  0  0  0  0  0  0  0  0  0
   17.9443   -0.0011    0.1302 C   0  0  0  0  0  0  0  0  0  0  0  0
   18.6424   -1.2105    0.1821 C   0  0  0  0  0  0  0  0  0  0  0  0
   17.9962   -2.4777    0.3383 C   0  0  0  0  0  0  0  0  0  0  0  0
   18.9813   -3.3971    0.4585 C   0  0  0  0  0  0  0  0  0  0  0  0
   20.2184   -2.6872    0.3358 C   0  0  0  0  0  0  0  0  0  0  0  0
   19.9979   -1.3444    0.1776 N   0  0  0  0  0  0  0  0  0  0  0  0
   21.4476   -3.3107    0.2903 C   0  0  0  0  0  0  0  0  0  0  0  0
   22.6175   -2.6463   -0.0123 C   0  0  0  0  0  0  0  0  0  0  0  0
   23.8647   -3.3128   -0.2492 C   0  0  0  0  0  0  0  0  0  0  0  0
   24.7449   -2.3591   -0.6250 C   0  0  0  0  0  0  0  0  0  0  0  0
   24.0402   -1.1111   -0.5760 C   0  0  0  0  0  0  0  0  0  0  0  0
   22.7373   -1.2993   -0.2097 N   0  0  0  0  0  0  0  0  0  0  0  0
   24.6458    0.1108   -0.7832 C   0  0  0  0  0  0  0  0  0  0  0  0
   24.0046    1.3106   -0.5550 C   0  0  0  0  0  0  0  0  0  0  0  0
   24.6717    2.5798   -0.5823 C   0  0  0  0  0  0  0  0  0  0  0  0
   23.7598    3.5019   -0.2028 C   0  0  0  0  0  0  0  0  0  0  0  0
   22.5317    2.7949    0.0160 C   0  0  0  0  0  0  0  0  0  0  0  0
   22.6945    1.4544   -0.1946 N   0  0  0  0  0  0  0  0  0  0  0  0
   21.3388    3.4197    0.3131 C   0  0  0  0  0  0  0  0  0  0  0  0
   20.1300    2.7570    0.3467 C   0  0  0  0  0  0  0  0  0  0  0  0
   19.9538    1.4081    0.1830 N   0  0  0  0  0  0  0  0  0  0  0  0
   18.7530    4.4827    0.6085 H   0  0  0  0  0  0  0  0  0  0  0  0
   16.8486    2.5806    0.3652 H   0  0  0  0  0  0  0  0  0  0  0  0
   16.9330   -2.6175    0.3673 H   0  0  0  0  0  0  0  0  0  0  0  0
   18.8992   -4.4574    0.5980 H   0  0  0  0  0  0  0  0  0  0  0  0
   21.4847   -4.3805    0.4288 H   0  0  0  0  0  0  0  0  0  0  0  0
   24.0163   -4.3705   -0.1524 H   0  0  0  0  0  0  0  0  0  0  0  0
   25.7780   -2.4629   -0.8953 H   0  0  0  0  0  0  0  0  0  0  0  0
   25.6867    0.1286   -1.0680 H   0  0  0  0  0  0  0  0  0  0  0  0
   25.7035    2.7180   -0.8419 H   0  0  0  0  0  0  0  0  0  0  0  0
   23.8780    4.5625   -0.0923 H   0  0  0  0  0  0  0  0  0  0  0  0
   21.3407    4.4894    0.4580 H   0  0  0  0  0  0  0  0  0  0  0  0
  2  3  2  0  0  0  0
  3  4  1  0  0  0  0
  4  5  4  0  0  0  0
  5  6  4  0  0  0  0
  6  7  1  0  0  0  0
  7  8  2  0  0  0  0
  8  9  1  0  0  0  0
  1 10  1  0  0  0  0
  6 10  4  0  0  0  0
  9 10  4  0  0  0  0
  9 11  4  0  0  0  0
 11 12  4  0  0  0  0
 12 13  1  0  0  0  0
 13 14  2  0  0  0  0
 14 15  1  0  0  0  0
  1 16  1  0  0  0  0
 12 16  4  0  0  0  0
 15 16  4  0  0  0  0
 15 17  4  0  0  0  0
 17 18  4  0  0  0  0
 18 19  1  0  0  0  0
 19 20  2  0  0  0  0
 20 21  1  0  0  0  0
  1 22  1  0  0  0  0
 18 22  4  0  0  0  0
 21 22  4  0  0  0  0
 21 23  4  0  0  0  0
  2 24  1  0  0  0  0
 23 24  4  0  0  0  0
  1 25  1  0  0  0  0
  4 25  4  0  0  0  0
 24 25  4  0  0  0  0
  2 26  1  0  0  0  0
  3 27  1  0  0  0  0
  7 28  1  0  0  0  0
  8 29  1  0  0  0  0
 11 30  1  0  0  0  0
 13 31  1  0  0  0  0
 14 32  1  0  0  0  0
 17 33  1  0  0  0  0
 19 34  1  0  0  0  0
 20 35  1  0  0  0  0
 23 36  1  0  0  0  0
  5 37  1  0  0  0  0
 37 38  3  0  0  0  0
 38 39  4  0  0  0  0
 39 40  3  0  0  0  0
 42 43  2  0  0  0  0
 43 44  1  0  0  0  0
 40 45  1  0  0  0  0
 44 45  4  0  0  0  0
 45 46  4  0  0  0  0
 46 47  1  0  0  0  0
 47 48  2  0  0  0  0
 48 49  1  0  0  0  0
 41 50  1  0  0  0  0
 46 50  4  0  0  0  0
 49 50  4  0  0  0  0
 49 51  4  0  0  0  0
 51 52  4  0  0  0  0
 52 53  1  0  0  0  0
 53 54  2  0  0  0  0
 54 55  1  0  0  0  0
 41 56  1  0  0  0  0
 52 56  4  0  0  0  0
 55 56  4  0  0  0  0
 55 57  4  0  0  0  0
 57 58  4  0  0  0  0
 58 59  1  0  0  0  0
 59 60  2  0  0  0  0
 60 61  1  0  0  0  0
 41 62  1  0  0  0  0
 58 62  4  0  0  0  0
 61 62  4  0  0  0  0
 61 63  4  0  0  0  0
 42 64  1  0  0  0  0
 63 64  4  0  0  0  0
 41 65  1  0  0  0  0
 44 65  4  0  0  0  0
 64 65  4  0  0  0  0
 42 66  1  0  0  0  0
 43 67  1  0  0  0  0
 47 68  1  0  0  0  0
 48 69  1  0  0  0  0
 51 70  1  0  0  0  0
 53 71  1  0  0  0  0
 54 72  1  0  0  0  0
 57 73  1  0  0  0  0
 59 74  1  0  0  0  0
 60 75  1  0  0  0  0
 63 76  1  0  0  0  0
M  END
