333

Zn 68.078173 0.028773 -0.010546
C 70.567657 0.256203 3.446877
C 71.532544 0.200171 2.497518
C 70.860367 0.095809 1.233677
C 71.514232 0.008036 -0.004893
C 70.863597 -0.080029 -1.245225
C 71.538964 -0.200987 -2.505935
C 70.576677 -0.254599 -3.458081
C 69.315905 -0.170756 -2.776853
N 69.521960 -0.070158 -1.433828
C 68.082632 -0.189571 -3.406793
C 66.848236 -0.123665 -2.782633
C 65.583487 -0.142276 -3.466468
C 64.624817 -0.066789 -2.514233
C 65.303117 -0.003367 -1.247573
N 66.647343 -0.037840 -1.441414
C 64.669049 0.075317 -0.018342
C 65.299322 0.133001 1.213988
C 64.617362 0.210966 2.477850
C 65.573410 0.252279 3.434811
C 66.840219 0.200359 2.756522
N 66.643085 0.126895 1.414011
C 68.073239 0.231758 3.386066
C 69.308387 0.193540 2.760640
N 69.517970 0.099118 1.417694
H 70.682908 0.336942 4.510599
H 72.597112 0.238360 2.623009
H 72.603494 -0.252070 -2.627334
H 70.694640 -0.345301 -4.520699
H 68.085080 -0.264178 -4.485403
H 65.464697 -0.204564 -4.531229
H 63.558907 -0.054812 -2.638225
H 63.588161 0.091772 -0.020964
H 63.551014 0.230910 2.597007
H 65.451493 0.312846 4.499325
H 68.073002 0.298912 4.465175
Zn 155.283742 0.036553 -0.015965
C 152.780709 0.273357 3.431565
C 151.819507 0.193949 2.480137
C 152.496568 0.125984 1.216354
C 151.847403 0.036218 -0.024570
C 152.502565 -0.055574 -1.262157
C 151.831804 -0.126625 -2.529096
C 152.797679 -0.211201 -3.475329
C 154.056073 -0.185047 -2.785072
N 153.845019 -0.086470 -1.442686
C 155.291906 -0.247886 -3.407109
C 156.524146 -0.202337 -2.776893
C 157.791731 -0.263034 -3.452954
C 158.746858 -0.177708 -2.498001
C 158.063559 -0.065403 -1.237472
N 156.719891 -0.084612 -1.437319
C 158.692800 0.047097 -0.008396
C 158.057591 0.152610 1.218212
C 158.734593 0.263368 2.482294
C 157.774739 0.336256 3.433555
C 156.510561 0.271347 2.751502
N 156.712960 0.161805 1.412243
C 155.275190 0.309199 3.376073
C 154.042533 0.248367 2.747570
N 153.838130 0.154922 1.403768
H 152.661404 0.339087 4.495870
H 150.754570 0.168263 2.605902
H 150.767551 -0.099656 -2.660263
H 152.683664 -0.280589 -4.539982
H 155.293542 -0.335482 -4.484742
H 157.914719 -0.357815 -4.514834
H 159.813407 -0.187744 -2.616562
H 159.773805 0.051525 -0.006185
H 159.800513 0.280317 2.605612
H 157.892460 0.425366 4.496534
H 155.271349 0.390782 4.454179
C 72.917968 0.009658 -0.004131
C 74.130820 0.016456 -0.007332
C 83.815979 0.057426 -0.030964
C 85.029373 0.056532 -0.036142
C 94.717662 0.048765 -0.022590
C 95.931323 0.048387 -0.020034
C 105.621470 0.033857 -0.015728
C 106.835237 0.032953 -0.016722
C 116.526072 0.047107 -0.034624
C 117.739858 0.051487 -0.035444
C 127.430258 0.052708 -0.010939
C 128.643967 0.052464 -0.010047
C 138.332268 0.036644 -0.015884
C 139.545667 0.034317 -0.017960
C 149.230809 0.037414 -0.031653
C 150.443663 0.037373 -0.027664
Zn 78.972511 0.043514 -0.016892
C 76.494425 -1.498836 3.093087
C 75.526193 -1.105385 2.230681
C 76.193217 -0.520733 1.102763
C 75.534110 0.024627 -0.009811
C 76.182514 0.578737 -1.124409
C 75.504572 1.158392 -2.248456
C 76.465057 1.565083 -3.113426
C 77.726497 1.238141 -2.512880
N 77.523786 0.645981 -1.302558
C 78.958901 1.484209 -3.093704
C 80.196052 1.197525 -2.542673
C 81.451325 1.448040 -3.190889
C 82.419712 1.042096 -2.334531
C 81.753321 0.552380 -1.162002
N 80.410653 0.647296 -1.314490
C 82.413131 0.055856 -0.026560
C 81.763235 -0.442163 1.114071
C 82.439918 -0.921866 2.284909
C 81.479463 -1.331581 3.148373
C 80.218780 -1.094138 2.505826
N 80.422293 -0.546741 1.274471
C 78.986965 -1.390804 3.063392
C 77.749768 -1.159314 2.486806
N 77.535822 -0.572397 1.275883
H 76.383414 -1.976497 4.047418
H 74.462734 -1.205772 2.327716
H 74.439660 1.246904 -2.341392
H 76.344948 2.043830 -4.066119
H 78.954710 1.943235 -4.072696
H 81.562088 1.873060 -4.169828
H 83.482995 1.053283 -2.473978
H 83.503952 -0.923455 2.418967
H 81.598988 -1.751152 4.128629
H 78.991387 -1.846755 4.043812
Zn 89.873055 0.051821 -0.030624
C 87.375990 -2.608280 2.177051
C 86.412774 -1.899064 1.540361
C 87.085419 -0.904372 0.755065
C 86.432168 0.054635 -0.035502
C 87.089365 1.012082 -0.824593
C 86.420506 2.007953 -1.611605
C 87.386642 2.716348 -2.244768
C 88.642911 2.156068 -1.836974
N 88.431424 1.128757 -0.966988
C 89.878349 2.593740 -2.282796
C 91.111612 2.094697 -1.900061
C 92.369687 2.562137 -2.407037
C 93.332919 1.844794 -1.779637
C 92.660882 0.947193 -0.884630
N 91.319402 1.106967 -0.984344
C 93.314885 0.049636 -0.025060
C 92.656883 -0.847099 0.832324
C 93.324804 -1.745396 1.729697
C 92.358614 -2.461228 2.354247
C 91.102820 -1.992161 1.843169
N 91.314868 -1.005074 0.927742
C 89.867710 -2.489141 2.222575
C 88.634260 -2.049997 1.772774
N 88.426881 -1.022976 0.901449
H 87.259602 -3.432990 2.853467
H 85.349392 -2.033272 1.577082
H 85.357363 2.143188 -1.651857
H 87.273541 3.541794 -2.920837
H 89.880154 3.403225 -2.999666
H 92.485829 3.331931 -3.145381
H 94.396027 1.896093 -1.910305
H 94.387395 -1.798039 1.863879
H 92.471334 -3.230972 3.093172
H 89.866245 -3.298059 2.940090
Zn 100.776092 0.042358 -0.013984
C 98.280250 -3.213650 1.145791
C 97.316963 -2.331964 0.784071
C 97.988331 -1.126075 0.392530
C 97.334065 0.046934 -0.017645
C 97.992286 1.218606 -0.425264
C 97.324860 2.426670 -0.816890
C 98.291250 3.306457 -1.174959
C 99.546591 2.636247 -0.992987
N 99.334262 1.373840 -0.525653
C 100.781627 3.194587 -1.274982
C 102.014494 2.591555 -1.093607
C 103.271789 3.197578 -1.425373
C 104.235067 2.309634 -1.079358
C 103.564036 1.167447 -0.528614
N 102.222737 1.354279 -0.561554
C 104.218714 0.035989 -0.014935
C 103.560285 -1.092783 0.499679
C 104.227491 -2.237298 1.050225
C 103.261067 -3.121030 1.398287
C 102.005769 -2.510278 1.067544
N 102.218278 -1.274212 0.534380
C 100.770769 -3.108762 1.249564
C 99.537736 -2.546975 0.965596
N 99.329678 -1.284581 0.496326
H 98.164395 -4.220597 1.497716
H 96.254308 -2.474330 0.764332
H 96.262486 2.571571 -0.799662
H 98.178826 4.314189 -1.525756
H 100.783474 4.198591 -1.676429
H 103.387521 4.168811 -1.866451
H 105.297492 2.398297 -1.194015
H 105.289802 -2.330357 1.162810
H 103.373388 -4.092449 1.839820
H 100.769037 -4.112293 1.652203
Zn 111.680649 0.039251 -0.028167
C 109.195666 -3.423736 0.055028
C 108.229225 -2.476110 -0.009396
C 108.896391 -1.206077 -0.002278
C 108.237976 0.034370 -0.019706
C 108.892831 1.276698 -0.040613
C 108.222193 2.544876 -0.030629
C 109.185535 3.495142 -0.101762
C 110.442483 2.805028 -0.145301
N 110.234053 1.459234 -0.094343
C 111.675221 3.427006 -0.245456
C 112.909934 2.801223 -0.264913
C 114.164815 3.484122 -0.395111
C 115.131123 2.535644 -0.343023
C 114.464381 1.276979 -0.171873
N 113.122542 1.460590 -0.143261
C 115.123330 0.044375 -0.033290
C 114.468793 -1.190371 0.106849
C 115.139628 -2.447079 0.276459
C 114.176156 -3.398352 0.330735
C 112.918927 -2.719131 0.203545
N 113.127384 -1.377910 0.081483
C 111.685943 -3.348522 0.187277
C 110.450932 -2.730141 0.092590
N 110.238407 -1.384883 0.044037
H 109.083284 -4.490648 0.072163
H 107.166923 -2.608460 -0.071481
H 107.160004 2.674437 0.038160
H 109.070091 4.561708 -0.119629
H 111.673517 4.506064 -0.314848
H 114.277053 4.544587 -0.513548
H 116.193016 2.658696 -0.426464
H 116.202097 -2.567153 0.357364
H 114.291707 -4.458461 0.449227
H 111.687696 -4.427654 0.255681
Zn 122.585224 0.054403 -0.028109
C 120.098126 -3.264085 -1.015928
C 119.132592 -2.340106 -0.792081
C 119.800417 -1.134242 -0.394531
C 119.142604 0.053719 -0.035661
C 119.798203 1.243025 0.322614
C 119.128295 2.450506 0.711577
C 120.092496 3.376012 0.934822
C 121.349313 2.728510 0.691397
N 121.139816 1.430586 0.332536
C 122.582948 3.348764 0.791464
C 123.817604 2.755213 0.591677
C 125.073787 3.442045 0.683642
C 126.039315 2.520054 0.451640
C 125.370603 1.270789 0.227269
N 124.028686 1.440429 0.301937
C 126.027533 0.053179 -0.014013
C 125.371626 -1.163990 -0.260448
C 126.041187 -2.413736 -0.479520
C 125.077044 -3.334328 -0.722573
C 123.820776 -2.646259 -0.642204
N 124.030317 -1.332210 -0.348032
C 122.587593 -3.238113 -0.855646
C 121.353550 -2.617643 -0.762725
N 121.142060 -1.321287 -0.399310
H 119.985071 -4.284991 -1.326078
H 118.070606 -2.444869 -0.896884
H 118.065840 2.555629 0.810978
H 119.977706 4.398599 1.238719
H 122.582103 4.398271 1.051708
H 125.187351 4.488059 0.893841
H 127.101964 2.659610 0.417543
H 127.103225 -2.554721 -0.434202
H 125.191539 -4.380233 -0.932778
H 122.588345 -4.286594 -1.119995
Zn 133.488679 0.044432 -0.012324
C 130.992022 -2.784224 -1.998503
C 130.028971 -1.980845 -1.485551
C 130.700819 -0.963377 -0.729462
C 130.046728 0.050348 -0.010474
C 130.704975 1.061981 0.707578
C 130.037360 2.082230 1.463654
C 131.003703 2.882226 1.975722
C 132.259339 2.343274 1.538526
N 132.047015 1.232083 0.778577
C 133.494549 2.891594 1.838643
C 134.727828 2.390933 1.457876
C 135.986209 3.003708 1.773104
C 136.949234 2.207027 1.249611
C 136.276382 1.105741 0.622740
N 134.934963 1.245060 0.750024
C 136.929491 0.038730 -0.014691
C 136.272098 -1.026154 -0.651239
C 136.940536 -2.129329 -1.279509
C 135.974217 -2.922878 -1.801669
C 134.718264 -2.306248 -1.484281
N 134.930072 -1.161164 -0.776558
C 133.482825 -2.802749 -1.863419
C 132.249903 -2.250078 -1.561920
N 132.042189 -1.138291 -0.801556
H 130.875876 -3.653552 -2.616560
H 128.966155 -2.048334 -1.610771
H 128.974833 2.153913 1.589185
H 130.891145 3.752204 2.593534
H 133.496288 3.798239 2.427854
H 136.102764 3.920679 2.317905
H 138.012641 2.345170 1.265432
H 138.003483 -2.270723 -1.297029
H 136.087043 -3.840027 -2.346954
H 133.480690 -3.709269 -2.452817
Zn 144.388639 0.036268 -0.025716
C 141.892527 -1.816745 -2.945571
C 140.929051 -1.285959 -2.154431
C 141.602020 -0.629063 -1.070767
C 140.948518 0.033963 -0.019783
C 141.604660 0.697242 1.029416
C 140.934451 1.352394 2.115861
C 141.899845 1.884833 2.903537
C 143.157076 1.546764 2.300526
N 142.946645 0.819570 1.167302
C 144.392216 1.917862 2.803515
C 145.626320 1.594882 2.265618
C 146.885443 2.013832 2.811397
C 147.848819 1.489382 2.015854
C 147.174964 0.746443 0.989676
N 145.833227 0.831529 1.156079
C 147.827487 0.038008 -0.031144
C 147.172638 -0.670048 -1.050648
C 147.844096 -1.410977 -2.079868
C 146.878790 -1.935901 -2.872762
C 145.620892 -1.519335 -2.322276
N 145.830481 -0.756652 -1.212795
C 144.385281 -1.844382 -2.855482
C 143.151369 -1.476069 -2.347378
N 142.943746 -0.749192 -1.213432
H 141.776199 -2.381913 -3.850163
H 139.865105 -1.314971 -2.286007
H 139.870957 1.379108 2.251512
H 141.785795 2.449453 3.808758
H 144.393301 2.516703 3.703806
H 147.002084 2.628637 3.682974
H 148.913145 1.596586 2.094556
H 148.908339 -1.516305 -2.162373
H 146.993358 -2.549502 -3.745467
H 144.383864 -2.442809 -3.756054
