118

C -9.836644 -0.805041 -4.374674
C -9.319008 -1.575127 -3.400210
C -9.901610 -1.125413 -2.139225
C -9.768776 -1.493013 -0.797551
C -10.768380 -1.451917 0.192400
C -10.386639 -1.416063 1.538857
C -11.536086 -1.313259 2.266726
C -12.586794 -1.290701 1.326815
N -12.109228 -1.379954 0.073642
C -13.903061 -1.150185 1.799818
C -14.865039 -0.252718 1.369919
C -16.212430 0.145695 1.748693
C -16.595595 1.089484 0.913270
C -15.543593 1.351166 -0.032163
N -14.526107 0.499622 0.305830
C -15.321706 2.169637 -1.115099
C -14.430540 2.001792 -2.189837
C -14.878065 2.330458 -3.497087
C -13.840730 2.053633 -4.335578
C -12.791505 1.564406 -3.513121
N -13.172594 1.545616 -2.234936
C -11.588264 1.175088 -4.130640
C -10.749595 0.136820 -3.759920
N -10.725204 -0.120072 -2.453852
H -9.648761 -0.846723 -5.418565
H -8.610227 -2.382154 -3.486823
H -9.367732 -1.458329 1.982171
H -11.583946 -1.268156 3.372238
H -12.707231 -1.412931 -0.860259
H -14.252771 -1.801534 2.640011
H -16.752552 -0.296761 2.573895
H -17.552618 1.627863 0.900137
H -15.982073 3.070773 -1.096354
H -15.860182 2.740524 -3.798668
H -13.841977 2.194573 -5.432966
H -12.550156 1.239037 -1.353919
H -11.219596 1.718692 -5.024369
C 11.557826 1.289341 4.419328
C 10.394266 1.579642 3.869681
C 10.466165 1.351416 2.467450
C 9.681138 1.442019 1.346111
C 10.053225 1.843193 0.046912
C 9.068157 1.946290 -0.972381
C 9.694106 2.290528 -2.113791
C 11.069020 2.393890 -1.785181
N 11.248818 2.125497 -0.480368
C 11.990148 2.703591 -2.803309
C 13.195785 2.081297 -3.059489
C 14.108237 1.900480 -4.174586
C 15.097566 1.159235 -3.741765
C 14.895800 0.826405 -2.367207
N 13.721564 1.415183 -2.011988
C 15.517138 0.118978 -1.338071
C 15.299376 0.227869 0.033597
C 16.404822 0.424880 0.900830
C 15.927541 0.504767 2.177095
C 14.522447 0.350346 2.051389
N 14.176197 0.186808 0.775487
C 13.743400 0.395800 3.227544
C 12.439111 0.852675 3.357596
N 11.745276 0.906620 2.212533
H 11.818482 1.366947 5.470163
H 9.518052 1.932951 4.388281
H 7.977276 1.779406 -0.871302
H 9.221684 2.467563 -3.103169
H 12.228253 2.158806 0.062959
H 11.746540 3.518429 -3.530784
H 13.951249 2.329917 -5.172279
H 15.937491 0.841904 -4.333395
H 16.278599 -0.580755 -1.768334
H 17.478210 0.501823 0.635787
H 16.522911 0.656692 3.093238
H 13.144890 0.017125 0.365765
H 14.155200 0.044111 4.190715
C -8.389163 -1.858699 -0.466526
C -7.214858 -2.082738 -0.188725
C -5.845645 -2.231571 0.122034
C -4.662957 -2.261911 0.378722
C 4.590740 0.000971 1.861954
C 5.786596 0.290122 1.879884
C 7.137564 0.663607 1.801518
C 8.299194 1.012448 1.640036
C -2.211526 -4.806448 2.939886
C -3.212308 -4.263765 2.268656
C -2.703758 -3.123005 1.512909
C -3.252154 -2.189623 0.667333
C -2.568967 -1.117541 0.012835
C -2.692003 -0.892919 -1.379021
C -1.924377 0.187179 -1.688115
C -1.342597 0.611510 -0.502189
N -1.744450 -0.182215 0.500118
C -0.450537 1.713545 -0.508396
C 0.795119 1.783515 0.146344
C 1.735491 2.802751 0.489115
C 2.747544 2.237489 1.120136
C 2.500909 0.811951 1.214399
N 1.324635 0.638075 0.613509
C 3.186448 -0.308134 1.756609
C 2.654638 -1.560021 2.072340
C 3.373029 -2.760397 1.791446
C 2.596372 -3.797882 2.144971
C 1.377806 -3.289913 2.654924
N 1.488310 -1.958641 2.584008
C 0.334293 -4.137123 3.055937
C -1.003248 -4.053137 2.657604
N -1.405606 -3.103524 1.822470
H -2.311018 -5.672914 3.593462
H -4.228552 -4.629586 2.294900
H -3.308727 -1.483355 -2.090842
H -1.799679 0.632923 -2.692163
H -1.444873 -0.066850 1.587571
H -0.693785 2.620612 -1.080179
H 1.610097 3.860523 0.259047
H 3.651402 2.709630 1.526306
H 4.390028 -2.830032 1.365079
H 2.889738 -4.874198 2.049214
H 0.679827 -1.233540 2.957858
H 0.552060 -4.973670 3.716839
