222

Ni 41.494567 0.046861 -0.015158
C 43.823558 -3.099933 1.307531
C 44.739666 -2.155725 1.257249
C 44.328486 -1.101821 0.335957
C 44.947357 0.022525 -0.010453
C 44.243314 1.242473 -0.374558
C 44.571425 2.202528 -1.222032
C 43.536645 3.218814 -1.238930
C 42.600377 2.842351 -0.392038
N 43.002368 1.609340 0.171779
C 41.339303 3.487351 -0.012886
C 40.244086 2.852568 0.337874
C 39.170460 3.170524 1.306902
C 38.332897 2.173770 1.229736
C 38.771195 1.170087 0.249284
N 39.876133 1.608940 -0.235008
C 38.160360 -0.083184 -0.164264
C 38.824520 -1.187690 -0.418689
C 38.450672 -2.250632 -1.376216
C 39.399419 -3.144388 -1.287197
C 40.385143 -2.706938 -0.304319
N 40.032097 -1.561133 0.192478
C 41.616031 -3.363008 0.141402
C 42.739072 -2.717147 0.408523
N 43.067672 -1.469706 -0.189881
H 43.883820 -4.009713 1.925077
H 45.655993 -2.195674 1.835297
H 45.498790 2.219324 -1.823175
H 43.553544 4.123502 -1.851551
H 41.291580 4.582154 -0.016664
H 39.117639 4.049249 1.931894
H 37.421267 2.138101 1.847060
H 37.062109 -0.080273 -0.263535
H 37.581816 -2.303097 -2.025166
H 39.396573 -4.060696 -1.885956
H 41.580549 -4.458810 0.253327
Ni 98.099735 -0.000516 -0.019591
C 95.770744 2.846276 1.863914
C 94.854637 1.927787 1.639340
C 95.265816 1.063090 0.538526
C 94.646946 0.022525 -0.010453
C 95.350988 -1.108700 -0.594556
C 95.022877 -1.894871 -1.605423
C 96.057657 -2.890381 -1.810563
C 96.993925 -2.677564 -0.908533
N 96.591935 -1.570553 -0.125761
C 98.255000 -3.381706 -0.655619
C 99.350217 -2.823013 -0.193186
C 100.423842 -3.315218 0.700036
C 101.261405 -2.321451 0.809121
C 100.823108 -1.153302 0.031886
N 99.718170 -1.494694 -0.525413
C 101.433943 0.154933 -0.141984
C 100.769782 1.287466 -0.187090
C 101.143631 2.509592 -0.930805
C 100.194884 3.371319 -0.677527
C 99.209160 2.759125 0.207137
N 99.562205 1.541046 0.482747
C 97.978272 3.321119 0.766831
C 96.855230 2.636914 0.909499
N 96.526630 1.522139 0.090064
H 95.710482 3.625701 2.639518
H 93.938309 1.859806 2.214766
H 94.095512 -1.799855 -2.199247
H 96.040758 -3.665715 -2.580383
H 98.302722 -4.456804 -0.862433
H 100.476664 -4.294635 1.151163
H 102.173036 -2.400923 1.422346
H 102.532193 0.170489 -0.240071
H 102.012486 2.681536 -1.558758
H 100.197730 4.382800 -1.095904
H 98.013754 4.377135 1.080100
C 47.561805 0.022525 -0.010453
C 48.778010 0.022525 -0.010453
C 58.375427 0.022525 -0.010453
C 59.591632 0.022525 -0.010453
C 69.189049 0.022525 -0.010453
C 70.405254 0.022525 -0.010453
C 80.002670 0.022525 -0.010453
C 81.218876 0.022525 -0.010453
C 90.816292 0.022525 -0.010453
C 92.032498 0.022525 -0.010453
Ni 53.608214 0.035326 0.003032
C 51.328404 -3.226121 -0.906633
C 50.372194 -2.326771 -1.008660
C 50.764569 -1.164466 -0.206144
C 50.129452 -0.013193 0.006122
C 50.814909 1.261406 0.232352
C 50.479619 2.340006 0.936592
C 51.504160 3.359323 0.846010
C 52.454757 2.862398 0.072646
N 52.077763 1.545793 -0.343497
C 53.701897 3.474100 -0.344220
C 54.803449 2.806843 -0.675991
C 55.796995 3.058827 -1.710161
C 56.690878 2.097968 -1.608677
C 56.311180 1.186084 -0.504700
N 55.216265 1.635403 0.002667
C 56.968387 -0.013193 0.006122
C 56.344976 -1.082375 0.467639
C 56.723688 -2.014491 1.543115
C 55.783020 -2.928637 1.628981
C 54.774718 -2.632858 0.631554
N 55.112493 -1.579480 -0.017741
C 53.522325 -3.339865 0.300360
C 52.408448 -2.743168 -0.046981
N 52.026336 -1.460411 0.370702
H 51.328748 -4.217195 -1.397868
H 49.463660 -2.448465 -1.589808
H 49.554767 2.458358 1.513518
H 51.531455 4.348487 1.302661
H 53.787837 4.571478 -0.406243
H 55.829667 3.865043 -2.436985
H 57.583940 1.985000 -2.242451
H 57.638439 -1.940084 2.153285
H 55.802066 -3.742245 2.337248
H 53.560810 -4.439824 0.359397
Ni 64.421836 0.035326 0.003032
C 62.142026 -3.226121 -0.906633
C 61.185816 -2.326771 -1.008660
C 61.578190 -1.164466 -0.206144
C 60.943074 -0.013193 0.006122
C 61.628531 1.261406 0.232352
C 61.293241 2.340006 0.936592
C 62.317782 3.359323 0.846010
C 63.268379 2.862398 0.072646
N 62.891385 1.545793 -0.343497
C 64.515519 3.474100 -0.344220
C 65.617071 2.806843 -0.675991
C 66.610617 3.058827 -1.710161
C 67.504500 2.097968 -1.608677
C 67.124802 1.186084 -0.504700
N 66.029887 1.635403 0.002667
C 67.782009 -0.013193 0.006122
C 67.158598 -1.082375 0.467639
C 67.537310 -2.014491 1.543115
C 66.596642 -2.928637 1.628981
C 65.588340 -2.632858 0.631554
N 65.926115 -1.579480 -0.017741
C 64.335947 -3.339865 0.300360
C 63.222070 -2.743168 -0.046981
N 62.839958 -1.460411 0.370702
H 62.142370 -4.217195 -1.397868
H 60.277282 -2.448465 -1.589808
H 60.368389 2.458358 1.513518
H 62.345077 4.348487 1.302661
H 64.601459 4.571478 -0.406243
H 66.643289 3.865043 -2.436985
H 68.397562 1.985000 -2.242451
H 68.452060 -1.940084 2.153285
H 66.615688 -3.742245 2.337248
H 64.374431 -4.439824 0.359397
Ni 75.235458 0.035326 0.003032
C 72.955647 -3.226121 -0.906633
C 71.999438 -2.326771 -1.008660
C 72.391812 -1.164466 -0.206144
C 71.756696 -0.013193 0.006122
C 72.442153 1.261406 0.232352
C 72.106863 2.340006 0.936592
C 73.131404 3.359323 0.846010
C 74.082001 2.862398 0.072646
N 73.705007 1.545793 -0.343497
C 75.329141 3.474100 -0.344220
C 76.430692 2.806843 -0.675991
C 77.424239 3.058827 -1.710161
C 78.318122 2.097968 -1.608677
C 77.938424 1.186084 -0.504700
N 76.843509 1.635403 0.002667
C 78.595631 -0.013193 0.006122
C 77.972219 -1.082375 0.467639
C 78.350932 -2.014491 1.543115
C 77.410263 -2.928637 1.628981
C 76.401962 -2.632858 0.631554
N 76.739737 -1.579480 -0.017741
C 75.149569 -3.339865 0.300360
C 74.035692 -2.743168 -0.046981
N 73.653580 -1.460411 0.370702
H 72.955992 -4.217195 -1.397868
H 71.090904 -2.448465 -1.589808
H 71.182011 2.458358 1.513518
H 73.158699 4.348487 1.302661
H 75.415081 4.571478 -0.406243
H 77.456911 3.865043 -2.436985
H 79.211184 1.985000 -2.242451
H 79.265682 -1.940084 2.153285
H 77.429310 -3.742245 2.337248
H 75.188053 -4.439824 0.359397
Ni 86.049080 0.035326 0.003032
C 83.769269 -3.226121 -0.906633
C 82.813060 -2.326771 -1.008660
C 83.205434 -1.164466 -0.206144
C 82.570318 -0.013193 0.006122
C 83.255775 1.261406 0.232352
C 82.920484 2.340006 0.936592
C 83.945026 3.359323 0.846010
C 84.895623 2.862398 0.072646
N 84.518629 1.545793 -0.343497
C 86.142763 3.474100 -0.344220
C 87.244314 2.806843 -0.675991
C 88.237861 3.058827 -1.710161
C 89.131744 2.097968 -1.608677
C 88.752046 1.186084 -0.504700
N 87.657131 1.635403 0.002667
C 89.409253 -0.013193 0.006122
C 88.785841 -1.082375 0.467639
C 89.164554 -2.014491 1.543115
C 88.223885 -2.928637 1.628981
C 87.215584 -2.632858 0.631554
N 87.553359 -1.579480 -0.017741
C 85.963191 -3.339865 0.300360
C 84.849314 -2.743168 -0.046981
N 84.467202 -1.460411 0.370702
H 83.769614 -4.217195 -1.397868
H 81.904526 -2.448465 -1.589808
H 81.995632 2.458358 1.513518
H 83.972321 4.348487 1.302661
H 86.228703 4.571478 -0.406243
H 88.270533 3.865043 -2.436985
H 90.024805 1.985000 -2.242451
H 90.079304 -1.940084 2.153285
H 88.242932 -3.742245 2.337248
H 86.001675 -4.439824 0.359397
