242
 xtb: 6.4.1 (bd6e46d)
Co       29.84065478579532   -0.00243157374551   -0.00335354003657
C        32.33958374053856   -3.40887501536065    0.08026771507597
C        33.29120216165467   -2.44891873174211    0.04247686389757
C        32.60018281262926   -1.19618017403353    0.01384607365587
C        33.26401456853917    0.03240771230607   -0.00594412690064
C        32.57547987591780    1.24738809136620    0.00614243666367
C        33.24107362393428    2.51396845992911    0.02821120956090
C        32.27024674188174    3.45473865787976    0.06005391001081
C        31.02294563264746    2.75280790538507    0.04935673219071
N        31.22097207131858    1.39708341040255    0.01828154329115
C        29.80221413172092    3.39213342007086    0.05165131628445
C        28.59706318605912    2.72630543844324    0.00269010295293
C        27.33123295866746    3.39856419220511   -0.03518505818299
C        26.38724493595799    2.43510714610307   -0.10336689402333
C        27.08333190716991    1.18138376221932   -0.09780007266549
N        28.43556951309308    1.36922233927077   -0.03488282077752
C        26.43996834759321   -0.03703084444718   -0.13245639523520
C        27.10770813470228   -1.24190750134882   -0.08709193255353
C        26.43703128333458   -2.50941300591803   -0.08142171067432
C        27.40033004713867   -3.45307240937941   -0.00668333562107
C        28.65239185407066   -2.75513729550116    0.02392942122329
N        28.46351657311586   -1.40195814360488   -0.02398603996829
C        29.87081693402726   -3.39615364284545    0.07532446809802
C        31.07837918529726   -2.73235701990555    0.06679675737340
N        31.24899954031263   -1.37315919089890    0.02749666453432
H        32.45806047510870   -4.47459727832812    0.10077374577087
H        34.35870245170030   -2.55376040081566    0.03576710659275
H        34.30629723663806    2.64049805876838    0.02141437072970
H        32.36723702646361    4.52300776024629    0.07420641890796
H        29.79155976871379    4.47163665106924    0.06668376216769
H        27.20943618720681    4.46464068278445   -0.01780985349862
H        25.31959859910778    2.53638806958160   -0.13703713568044
H        25.36102290024775   -0.04786391942443   -0.16415785879289
H        25.37157268796460   -2.63213904293846   -0.11263200766007
H        27.30003073044026   -4.52090050359429    0.01991744100702
H        29.88193262024669   -4.47521811983544    0.09818872031584
Co      109.77315920598350    0.03175257273456    0.00022383803409
C       107.28118646429014    3.37712425782107    0.67152329643752
C       106.32774974155167    2.44263036834930    0.45661233674963
C       107.01607364698746    1.21190747360165    0.21315719542779
C       106.34958813319821    0.00660457378511   -0.01838521407930
C       107.03573422625323   -1.19457426601325   -0.21014210597679
C       106.36783877933456   -2.44515809238064   -0.40435411021668
C       107.33694707189473   -3.37909894323754   -0.53533279976517
C       108.58557796784039   -2.68765252190840   -0.42824441417679
N       108.39002551548181   -1.34656524555649   -0.22494695354613
C       109.80505567225261   -3.31902799760898   -0.54345838686405
C       111.01133232141004   -2.65619041753593   -0.48266803029314
C       112.27550263969184   -3.31230874739591   -0.64735464586494
C       113.22111997810362   -2.35311565311039   -0.54872207432142
C       112.52780470081157   -1.11979193172793   -0.31495720613380
N       111.17549805311118   -1.31422061007063   -0.27950839176810
C       113.17377909989744    0.08345278931311   -0.12896562370627
C       112.50880402909358    1.26057684244403    0.13915547753473
C       113.18225118806970    2.50367418120799    0.37919514556804
C       112.22094795271380    3.41956150075588    0.62629306453511
C       110.96726182962949    2.73115665678558    0.52558960476068
N       111.15332628173010    1.40928537139453    0.23058778065199
C       109.74988355915292    3.35602186355074    0.68570894250383
C       108.54094682924300    2.70904209240731    0.54824561532928
N       108.36756997843050    1.37905478095438    0.26700172545897
H       107.16517596154286    4.42285897859223    0.87996649861427
H       105.26073190182318    2.55147395508807    0.45907472627591
H       105.30226063847645   -2.56637745662979   -0.43269824355868
H       107.23779552302052   -4.43373857681099   -0.70367016498489
H       109.81341625960063   -4.38470096296102   -0.71608843908488
H       112.39502074576239   -4.36460344886526   -0.82097261743691
H       114.28813942031165   -2.44763591426718   -0.60916736970846
H       114.25257546382733    0.09863604348673   -0.16515507460374
H       114.24809282005936    2.62799039200880    0.36889675400909
H       112.32383616565158    4.46387599294898    0.84907034688438
H       109.74113803044598    4.41296007811147    0.90435079985755
C        34.66124154198449    0.04610089506604   -0.01686929011225
C        35.88069213844000    0.05601178375742   -0.02391971009191
C        37.21754550715035    0.06550777803509   -0.02967547996184
C        38.44154495688558    0.06887175917820   -0.03013230841564
C        39.77829629040388    0.07260960568068   -0.02932166662858
C        40.99796499704503    0.07222474176753   -0.02817253590035
C        50.64913194550192    0.04368464527263   -0.02137810440125
C        51.86888917972910    0.03903269510985   -0.01496332344103
C        53.20539099710075    0.03696480850580   -0.01579670764872
C        54.42958462597407    0.03601013287294   -0.01209312780232
C        55.76607841461149    0.03556137081803   -0.01353266298486
C        56.98584157555526    0.03737325764461   -0.01837970566923
C        66.63670790065839    0.03290463823906   -0.02525744357720
C        67.85650990804322    0.03039531615374   -0.02440375532618
C        69.19299551397447    0.03148414802302   -0.02301103686344
C        70.41718534274251    0.03699266702367   -0.02149456935993
C        71.75367806244567    0.03864086575148   -0.02070118342482
C        72.97346876055433    0.04470311451162   -0.01759658635920
C        82.62513392527556    0.04403968108728   -0.02748640591712
C        83.84494858393158    0.04059392043873   -0.03351542227989
C        85.18156655578765    0.04038839389632   -0.03396757410671
C        86.40578893707239    0.03891827780456   -0.03922324421529
C        87.74240131774641    0.03499886008772   -0.03815286362419
C        88.96222414759931    0.03088311340072   -0.03544952822711
C        98.61503853823443   -0.00960111207975   -0.04861948585701
C        99.83471601625867   -0.01164023583037   -0.05205257811044
C       101.17166003323545   -0.01244696454962   -0.05377035486012
C       102.39565419847462   -0.01053457029131   -0.05201670381617
C       103.73271422766035   -0.00651224727628   -0.04596408763483
C       104.95217727538787   -0.00119332419264   -0.03594725265591
Co       45.82350960876779    0.05890491655517   -0.02241893602934
C        43.34508016219328   -3.34427996493287    0.35963225377152
C        42.38632044907931   -2.39692732206305    0.25034084010160
C        43.06836999984932   -1.14685730451325    0.10992448362403
C        42.39465880957933    0.06917641997077   -0.02675443636447
C        43.07593409455374    1.28109016822595   -0.16163234224237
C        42.40191000982951    2.53549286694246   -0.30218849240515
C        43.36676209988029    3.47697285710375   -0.40887647145672
C        44.61793746795324    2.78671931490397   -0.33236096214070
N        44.42891021688104    1.43790001513885   -0.17994913608783
C        45.83441000768914    3.42860340245812   -0.40719316942341
C        47.04670245813196    2.77861194147670   -0.33525033104732
C        48.30229532624244    3.46037846579224   -0.41506141420285
C        49.26102566704322    2.51278358146006   -0.30738559643842
C        48.57891919717983    1.26324437801239   -0.16278380259350
N        47.22706036694534    1.42880696206347   -0.18069143664062
C        49.25263215528783    0.04763868123936   -0.02202604128903
C        48.57131802040458   -1.16386338404132    0.11746192590144
C        49.24535887943573   -2.41775686643619    0.26232295769555
C        48.28051082621774   -3.35913282943843    0.37007589680950
C        47.02935878478632   -2.66934030450396    0.28947195560927
N        47.21839809584646   -1.32075282549885    0.13453842342523
C        45.81288060965667   -3.31149888582923    0.36106094435205
C        44.60063598538054   -2.66193694272138    0.28447078012637
N        44.42026182673428   -1.31200642737694    0.13089440643540
H        43.23509438299338   -4.40508477208900    0.47569491173637
H        41.31978140394568   -2.50893595822798    0.26263246893383
H        41.33591753687023    2.65380685134596   -0.31334184478492
H        43.26331831402778    4.53714555478097   -0.53240765746820
H        45.83775700720341    4.50029859821252   -0.53553545076002
H        48.41245605185096    4.51975649024143   -0.54091208053211
H        50.32769234484179    2.62438649720280   -0.31985314320407
H        50.31142560190224   -2.53588922767786    0.27851279863360
H        48.38408855527585   -4.42017688450998    0.48860867580555
H        45.80953230125724   -4.38484745724059    0.47758266462657
Co       61.81122972423893    0.03407154770798   -0.02736856587027
C        59.34210728206797   -3.37389629135522    0.37147682887944
C        58.38068917642775   -2.42907060208893    0.26333644350895
C        59.05927624034547   -1.17763281690150    0.11860210958275
C        58.38232161405936    0.03639990771854   -0.02039914851564
C        59.06039263170626    1.24942188777152   -0.16247591258504
C        58.38277679907217    2.50136331335729   -0.30746713848862
C        59.34492737268943    3.44493361973420   -0.41998122949388
C        60.59803463578441    2.75838803793694   -0.34215601251121
N        60.41283021469874    1.40964240746767   -0.18396497641159
C        61.81266613896470    3.40330943419197   -0.42026786761265
C        63.02676871309044    2.75695376571975   -0.34599387742687
C        64.28045764644385    3.44195020353646   -0.42791144628220
C        65.24180703913376    2.49739091219988   -0.31688226052780
C        64.56312953572743    1.24641489189870   -0.16853134960671
N        63.21083979229545    1.40812902878214   -0.18710462412768
C        65.24022987071558    0.03295903777097   -0.02528140883149
C        64.56228000475134   -1.18010714249745    0.11724865291818
C        65.23981618137232   -2.43187907854240    0.26402207230672
C        64.27760112224141   -3.37572371779623    0.37368864826237
C        63.02453114127458   -2.68947439434480    0.29274307943191
N        63.20981874594632   -1.34068088174442    0.13517428325996
C        61.80986676426693   -3.33479214973012    0.36698081553031
C        60.59575057715453   -2.68855683113126    0.29175629346870
N        60.41159586887937   -1.33940362340674    0.13598283110683
H        59.23487653296164   -4.43423409276089    0.49178178091214
H        57.31434953536576   -2.54322453758105    0.27997669936871
H        57.31649467466983    2.61731436935511   -0.31611820271077
H        59.23852944132047    4.50481900154250   -0.54581583321576
H        61.81309354783640    4.47506421233355   -0.54975980658164
H        64.38778388036647    4.50170578939733   -0.55404056709384
H        66.30819708972473    2.61234153397619   -0.32644464106781
H        66.30608512401716   -2.54664882894216    0.28292778770826
H        64.38395750278436   -4.43581025307849    0.49695482037899
H        61.80941300147645   -4.40742012338520    0.48812234960934
Co       77.79925297143909    0.04732622157238    0.00109424470947
C        75.33184531532964   -3.36573783521402    0.36734164163208
C        74.36987315943392   -2.42241925728713    0.25098275018639
C        75.04764395256763   -1.16938983022185    0.11654594541834
C        74.36995827668132    0.04506734311009   -0.01524251299892
C        75.04749083104440    1.26010456580568   -0.14194498528409
C        74.36935395886670    2.51346250115129   -0.27132889673336
C        75.33109328775357    3.45817842637009   -0.37793002847987
C        76.58449411796056    2.77079117525307   -0.31317664162341
N        76.39985440335624    1.42090304789658   -0.16436020839717
C        77.79879374894122    3.41502222416371   -0.40162685530303
C        79.01315631952937    2.76737513346753   -0.34403402574881
C        80.26626903556708    3.45114466891514   -0.44319225477133
C        81.22826202422354    2.50642336527579   -0.33898290679925
C        80.55062863527981    1.25665408945853   -0.17652862400454
N        79.19821592595400    1.41906456301041   -0.18201981977474
C        81.22853368503370    0.04478691216591   -0.02360192217270
C        80.55092069023634   -1.16616581540607    0.13765889266728
C        81.22888307631212   -2.41549128535443    0.30214546322078
C        80.26703554679796   -3.35866479914222    0.42063872199612
C        79.01371568947803   -2.67459179025680    0.32647976285247
N        79.19849831084275   -1.32722280256753    0.15655193095099
C        77.79945592533313   -3.32149335939695    0.39344678466139
C        76.58500898513385   -2.67804158074323    0.30165814500131
N        76.40003538257065   -1.32900959812738    0.14576506669085
H        75.22505279117024   -4.42780721395634    0.47260211334341
H        73.30348703571310   -2.53891743039715    0.25212120131151
H        73.30311308484912    2.62902891150882   -0.27910841922183
H        75.22424858912726    4.51796405972419   -0.50431148498080
H        77.79872474045933    4.48532798369895   -0.54314481282775
H        80.37281773452321    4.50853961203252   -0.58857980764212
H        82.29455110815732    2.61957892969812   -0.36876529818696
H        82.29503890960990   -2.53044922713323    0.31688595155430
H        80.37361144474886   -4.41896687869627    0.54249320506987
H        77.79954972628040   -4.39538070062571    0.50427047753284
Co       93.78869824846903    0.01123179898325   -0.03743062719750
C        91.30671985137531   -3.38520954820658    0.38260065835357
C        90.34866280222846   -2.43763839892567    0.26892633106238
C        91.03161566466537   -1.18954947424129    0.11600127406578
C        90.35884068328237    0.02581739844864   -0.03156596271629
C        91.04166376945138    1.23621131225135   -0.17369519532446
C        90.36910868007773    2.49063265265080   -0.32080909491878
C        91.33500086468842    3.43146982802277   -0.42367565785555
C        92.58538157253145    2.74070149872664   -0.33936900641726
N        92.39478577052903    1.39203230687158   -0.18741125913088
C        93.80254176390747    3.38211323186137   -0.40610126814152
C        95.01428404354807    2.73134238962898   -0.33138784971900
C        96.27039429015220    3.41277085111296   -0.40617527118232
C        97.22844135757650    2.46375986005234   -0.30538304791613
C        96.54547047086579    1.21368826102576   -0.16941658607099
N        95.19361461893619    1.38053177173406   -0.18520513211084
C        97.21815753606404   -0.00393450288733   -0.04243132998098
C        96.53542849631178   -1.21491393390574    0.09373861359794
C        97.20793017734655   -2.47050447762543    0.23099437121496
C        96.24205862028748   -3.40965808810764    0.34824823675439
C        94.99170291889453   -2.71702552144527    0.28008011674296
N        95.18226673321466   -1.36903368300110    0.12211151282874
C        93.77459477506433   -3.35633699229872    0.36605072898663
C        92.56281284978806   -2.70509491343579    0.29652030746132
N        92.38341806010733   -1.35613538818707    0.13354395014681
H        91.19548407348250   -4.44376457676188    0.51624486983026
H        89.28175976182141   -2.54749176360058    0.29053874766531
H        89.30335972826973    2.61042454971439   -0.33274005820129
H        91.23295006264127    4.49269310657735   -0.54026208532758
H        93.80725195219900    4.45523471504530   -0.52160091498295
H        96.38155689825867    4.47346606550985   -0.51760825806098
H        98.29528857479315    2.57453827556985   -0.31537778529168
H        98.27356307124253   -2.59111960259551    0.23898391429459
H        96.34398336841500   -4.47040103767039    0.47266299387281
H        93.76996199203163   -4.42815274014362    0.49653933844075
