283

Zn 35.782605 -0.000781 -0.012745
C 38.319217 -3.433829 0.021559
C 39.271156 -2.469604 0.020463
C 38.580015 -1.211884 0.008443
C 39.216793 0.040036 0.001913
C 38.550676 1.276468 -0.007527
C 39.211824 2.550236 -0.010865
C 38.237279 3.491597 -0.018682
C 36.984710 2.790419 -0.020057
N 37.207311 1.445864 -0.012896
C 35.743109 3.403568 -0.027979
C 34.517066 2.759431 -0.031059
C 33.243041 3.425835 -0.040290
C 32.297300 2.457780 -0.042030
C 32.992852 1.198991 -0.033278
N 34.334475 1.412882 -0.026582
C 32.375649 -0.041305 -0.032342
C 33.022050 -1.266606 -0.023317
C 32.356547 -2.541571 -0.021993
C 33.324976 -3.486867 -0.010821
C 34.582810 -2.790355 -0.005544
N 34.368354 -1.448536 -0.013641
C 35.823767 -3.405137 0.006310
C 37.050415 -2.762607 0.010572
N 37.241076 -1.413136 0.003394
H 38.449399 -4.498828 0.028914
H 40.338175 -2.581949 0.026636
H 40.275914 2.687820 -0.007670
H 38.342169 4.559399 -0.023270
H 35.731061 4.484667 -0.032526
H 33.109881 4.490691 -0.045093
H 31.229687 2.566368 -0.048451
H 31.294735 -0.054138 -0.039025
H 31.291824 -2.675525 -0.028698
H 33.217137 -4.554588 -0.006539
H 35.837415 -4.486209 0.012323
Zn 131.745552 0.034662 -0.011407
C 129.217021 3.414642 0.623859
C 128.262784 2.468638 0.449498
C 128.950945 1.230680 0.217979
C 128.311238 0.000573 -0.006269
C 128.974387 -1.216896 -0.230779
C 128.310251 -2.468513 -0.458915
C 129.282573 -3.395668 -0.634736
C 130.536796 -2.707970 -0.513846
N 130.317382 -1.385584 -0.267840
C 131.776936 -3.312503 -0.633123
C 133.004506 -2.680840 -0.522869
C 134.276948 -3.337725 -0.652298
C 135.224998 -2.387359 -0.480375
C 134.532454 -1.148958 -0.245467
N 133.190321 -1.357315 -0.277292
C 135.152616 0.069272 -0.020563
C 134.509115 1.274608 0.208225
C 135.177651 2.526758 0.439803
C 134.211455 3.457472 0.618098
C 132.951949 2.774910 0.495352
N 133.163229 1.455589 0.247767
C 131.712436 3.381483 0.612471
C 130.484248 2.752199 0.497981
N 130.290399 1.425886 0.251562
H 129.089356 4.461911 0.819184
H 127.196021 2.581226 0.472724
H 127.245841 -2.602169 -0.478832
H 129.175187 -4.445517 -0.828424
H 131.786403 -4.375452 -0.830595
H 134.407574 -4.384725 -0.848266
H 136.292350 -2.495575 -0.506428
H 136.233565 0.080294 -0.023781
H 136.242707 2.656710 0.459685
H 134.321821 4.506796 0.814101
H 131.701326 4.444220 0.810980
C 40.613957 0.055522 0.004729
C 41.833755 0.064826 0.006431
C 43.169479 0.073211 0.004957
C 44.393697 0.077507 0.002323
C 45.729278 0.077932 -0.000560
C 46.949265 0.076771 -0.003867
C 56.609493 0.040764 -0.025979
C 57.829489 0.037418 -0.027130
C 59.164512 0.036339 -0.026102
C 60.388808 0.035523 -0.026592
C 61.723821 0.035748 -0.025292
C 62.943804 0.034480 -0.024486
C 72.601185 0.040319 -0.020345
C 73.821193 0.040787 -0.020332
C 75.156109 0.041385 -0.021859
C 76.380293 0.041398 -0.020650
C 77.715202 0.041765 -0.022467
C 78.935196 0.041257 -0.021991
C 88.592043 0.036096 -0.022471
C 89.812009 0.035782 -0.023230
C 91.146935 0.037571 -0.021508
C 92.371170 0.038267 -0.021964
C 93.706091 0.037880 -0.020760
C 94.926065 0.038623 -0.021890
C 104.583628 0.049013 -0.023141
C 105.803629 0.048954 -0.023800
C 107.138680 0.048778 -0.025013
C 108.363001 0.047383 -0.024792
C 109.698051 0.044275 -0.024688
C 110.918009 0.039680 -0.023168
C 120.578469 -0.015591 -0.013429
C 121.798384 -0.021530 -0.011612
C 123.134079 -0.024535 -0.011567
C 124.358242 -0.023542 -0.006209
C 125.694106 -0.017915 -0.005838
C 126.913893 -0.011457 -0.007033
Zn 51.779946 0.058492 -0.017307
C 49.273709 -3.372191 0.381325
C 48.313497 -2.421657 0.275812
C 48.993841 -1.166888 0.130694
C 48.345776 0.071839 -0.007759
C 49.002593 1.305383 -0.150363
C 48.331115 2.565273 -0.292278
C 49.298009 3.508259 -0.404324
C 50.555259 2.821256 -0.330176
N 50.344307 1.483496 -0.175642
C 51.791976 3.438731 -0.405849
C 53.024203 2.811922 -0.337900
C 54.286483 3.488913 -0.419735
C 55.246467 2.538376 -0.312638
C 54.565718 1.283948 -0.166006
N 53.225528 1.472483 -0.184084
C 55.213452 0.045433 -0.024612
C 54.557055 -1.188272 0.118303
C 55.228892 -2.447945 0.260871
C 54.262179 -3.391295 0.370964
C 53.004739 -2.704637 0.295320
N 53.215561 -1.366627 0.141873
C 51.768062 -3.321966 0.368941
C 50.535775 -2.694858 0.300562
N 50.334266 -1.355363 0.148345
H 49.152983 -4.431382 0.502433
H 47.247510 -2.541729 0.292622
H 47.265980 2.693481 -0.303136
H 49.184792 4.568248 -0.525751
H 51.795687 4.512857 -0.529486
H 54.407536 4.547896 -0.542346
H 56.312513 2.658166 -0.329496
H 56.294065 -2.575837 0.272936
H 54.375693 -4.451309 0.491886
H 51.764072 -4.396186 0.491769
Zn 67.772646 0.037625 -0.021444
C 65.280236 -3.403208 0.380640
C 64.316550 -2.456865 0.269357
C 64.992425 -1.199949 0.121864
C 64.339823 0.035502 -0.023834
C 64.991038 1.271840 -0.168203
C 64.313884 2.528047 -0.315765
C 65.276600 3.475539 -0.425631
C 66.536857 2.794873 -0.344582
N 66.331787 1.456323 -0.188287
C 67.770875 3.417978 -0.416027
C 69.005535 2.796543 -0.342460
C 70.265145 3.478730 -0.421344
C 71.228787 2.532306 -0.310582
C 70.552830 1.275268 -0.164370
N 69.211955 1.458157 -0.186380
C 71.205250 0.039581 -0.020217
C 70.554123 -1.196793 0.123870
C 71.231422 -2.453045 0.270637
C 70.268791 -3.400537 0.381058
C 69.008457 -2.719800 0.301233
N 69.213443 -1.381211 0.144980
C 67.774474 -3.342686 0.373917
C 66.539796 -2.721066 0.301012
N 66.333353 -1.382820 0.143942
H 65.163394 -4.462462 0.504952
H 63.250985 -2.581087 0.283699
H 63.248209 2.651048 -0.331382
H 65.158677 4.534693 -0.549721
H 67.770266 4.491892 -0.541457
H 70.382050 4.538082 -0.544735
H 72.294354 2.656545 -0.324486
H 72.297123 -2.576055 0.285336
H 70.386819 -4.459734 0.504728
H 67.775021 -4.416586 0.499448
Zn 83.763605 0.038891 -0.022376
C 81.267539 -3.398323 0.388357
C 80.304932 -2.450930 0.276817
C 80.982253 -1.195202 0.125812
C 80.331128 0.040718 -0.022298
C 80.983499 1.275929 -0.170569
C 80.307508 2.532362 -0.321620
C 81.271129 3.478763 -0.432866
C 82.530739 2.797133 -0.349613
N 82.324378 1.459063 -0.190846
C 83.765377 3.419041 -0.419932
C 84.999349 2.796482 -0.343863
C 86.259676 3.477525 -0.420756
C 87.222294 2.530117 -0.309389
C 86.545004 1.273685 -0.164268
N 85.204313 1.457884 -0.187740
C 87.196101 0.037145 -0.021219
C 86.543677 -1.198747 0.121028
C 87.219678 -2.455987 0.265202
C 86.256058 -3.402345 0.376777
C 84.996455 -2.719995 0.299601
N 85.202804 -1.381601 0.143567
C 83.761829 -3.341252 0.375596
C 82.527866 -2.718042 0.305046
N 82.322931 -1.379782 0.146011
H 81.149495 -4.457149 0.515083
H 79.239240 -2.573713 0.293274
H 79.241941 2.656259 -0.338179
H 81.154211 4.537748 -0.559335
H 83.765954 4.492855 -0.546194
H 86.377701 4.536847 -0.543343
H 88.287986 2.653387 -0.321849
H 88.285243 -2.580339 0.277868
H 86.372972 -4.461762 0.499537
H 83.761258 -4.415039 0.502067
Zn 99.754682 0.044163 -0.022336
C 97.263922 -3.397084 0.387046
C 96.299803 -2.451356 0.274571
C 96.975129 -1.194412 0.124767
C 96.322005 0.040507 -0.022515
C 96.972481 1.276949 -0.169249
C 96.294610 2.532608 -0.318507
C 97.256805 3.480349 -0.430690
C 98.517463 2.800364 -0.349606
N 98.313087 1.461996 -0.190675
C 99.751163 3.423762 -0.422863
C 100.986166 2.802937 -0.348616
C 102.245366 3.485718 -0.428378
C 103.209553 2.539920 -0.316849
C 102.534366 1.282795 -0.168189
N 101.193332 1.464934 -0.190482
C 103.187589 0.047667 -0.022640
C 102.536933 -1.188811 0.123206
C 103.214704 -2.444720 0.270688
C 102.252443 -3.392291 0.383856
C 100.991857 -2.712094 0.303927
N 101.196269 -1.373697 0.145433
C 99.758146 -3.335409 0.378736
C 98.523179 -2.714543 0.305628
N 98.316092 -1.376616 0.146535
H 97.147548 -4.456183 0.513069
H 95.234297 -2.576016 0.289441
H 95.228853 2.655093 -0.333506
H 97.138280 4.539228 -0.556594
H 99.750096 4.497477 -0.549983
H 102.361648 4.544986 -0.553094
H 104.275042 2.664721 -0.331091
H 104.280448 -2.567427 0.284452
H 102.370878 -4.451241 0.509213
H 99.759280 -4.409071 0.506296
Zn 115.747618 0.011662 -0.020253
C 113.232778 -3.413573 0.374013
C 112.275081 -2.460828 0.266037
C 112.958839 -1.207899 0.120458
C 112.314066 0.031947 -0.023083
C 112.973478 1.264026 -0.165837
C 112.304748 2.524935 -0.312007
C 113.273780 3.466152 -0.419837
C 114.529539 2.777065 -0.338391
N 114.315428 1.439627 -0.184556
C 115.767713 3.392068 -0.405999
C 116.998483 2.762760 -0.330814
C 118.262196 3.437880 -0.404336
C 119.220108 2.485577 -0.294148
C 118.536733 1.231886 -0.153934
N 117.196737 1.422832 -0.178350
C 119.181826 -0.008353 -0.015921
C 118.522089 -1.241099 0.119624
C 119.190456 -2.502783 0.260498
C 118.221235 -3.443952 0.367546
C 116.965656 -2.754087 0.291475
N 117.179890 -1.416483 0.140333
C 115.727421 -3.368944 0.363934
C 114.496697 -2.739321 0.294776
N 114.298579 -1.399358 0.141342
H 113.109168 -4.472350 0.495873
H 111.208748 -2.578289 0.281030
H 111.239886 2.654941 -0.328361
H 113.162883 4.526231 -0.542603
H 115.774312 4.466253 -0.529010
H 118.385494 4.496927 -0.524147
H 120.286398 2.603718 -0.305216
H 120.255272 -2.633302 0.274198
H 118.331832 -4.504449 0.486893
H 115.721120 -4.443213 0.486232
