
  xtb     11192114583D
 xtb: 6.4.1 (bd6e46d)
283338  0     0  0            999 V2000
   35.7826   -0.0008   -0.0127 Zn  0  0  0  0  0  0  0  0  0  0  0  0
   38.3192   -3.4338    0.0216 C   0  0  0  0  0  0  0  0  0  0  0  0
   39.2712   -2.4696    0.0205 C   0  0  0  0  0  0  0  0  0  0  0  0
   38.5800   -1.2119    0.0084 C   0  0  0  0  0  0  0  0  0  0  0  0
   39.2168    0.0400    0.0019 C   0  0  0  0  0  0  0  0  0  0  0  0
   38.5507    1.2765   -0.0075 C   0  0  0  0  0  0  0  0  0  0  0  0
   39.2118    2.5502   -0.0109 C   0  0  0  0  0  0  0  0  0  0  0  0
   38.2373    3.4916   -0.0187 C   0  0  0  0  0  0  0  0  0  0  0  0
   36.9847    2.7904   -0.0201 C   0  0  0  0  0  0  0  0  0  0  0  0
   37.2073    1.4459   -0.0129 N   0  0  0  0  0  0  0  0  0  0  0  0
   35.7431    3.4036   -0.0280 C   0  0  0  0  0  0  0  0  0  0  0  0
   34.5171    2.7594   -0.0311 C   0  0  0  0  0  0  0  0  0  0  0  0
   33.2430    3.4258   -0.0403 C   0  0  0  0  0  0  0  0  0  0  0  0
   32.2973    2.4578   -0.0420 C   0  0  0  0  0  0  0  0  0  0  0  0
   32.9929    1.1990   -0.0333 C   0  0  0  0  0  0  0  0  0  0  0  0
   34.3345    1.4129   -0.0266 N   0  0  0  0  0  0  0  0  0  0  0  0
   32.3756   -0.0413   -0.0323 C   0  0  0  0  0  0  0  0  0  0  0  0
   33.0221   -1.2666   -0.0233 C   0  0  0  0  0  0  0  0  0  0  0  0
   32.3565   -2.5416   -0.0220 C   0  0  0  0  0  0  0  0  0  0  0  0
   33.3250   -3.4869   -0.0108 C   0  0  0  0  0  0  0  0  0  0  0  0
   34.5828   -2.7904   -0.0055 C   0  0  0  0  0  0  0  0  0  0  0  0
   34.3684   -1.4485   -0.0136 N   0  0  0  0  0  0  0  0  0  0  0  0
   35.8238   -3.4051    0.0063 C   0  0  0  0  0  0  0  0  0  0  0  0
   37.0504   -2.7626    0.0106 C   0  0  0  0  0  0  0  0  0  0  0  0
   37.2411   -1.4131    0.0034 N   0  0  0  0  0  0  0  0  0  0  0  0
   38.4494   -4.4988    0.0289 H   0  0  0  0  0  0  0  0  0  0  0  0
   40.3382   -2.5819    0.0266 H   0  0  0  0  0  0  0  0  0  0  0  0
   40.2759    2.6878   -0.0077 H   0  0  0  0  0  0  0  0  0  0  0  0
   38.3422    4.5594   -0.0233 H   0  0  0  0  0  0  0  0  0  0  0  0
   35.7311    4.4847   -0.0325 H   0  0  0  0  0  0  0  0  0  0  0  0
   33.1099    4.4907   -0.0451 H   0  0  0  0  0  0  0  0  0  0  0  0
   31.2297    2.5664   -0.0485 H   0  0  0  0  0  0  0  0  0  0  0  0
   31.2947   -0.0541   -0.0390 H   0  0  0  0  0  0  0  0  0  0  0  0
   31.2918   -2.6755   -0.0287 H   0  0  0  0  0  0  0  0  0  0  0  0
   33.2171   -4.5546   -0.0065 H   0  0  0  0  0  0  0  0  0  0  0  0
   35.8374   -4.4862    0.0123 H   0  0  0  0  0  0  0  0  0  0  0  0
  131.7456    0.0347   -0.0114 Zn  0  0  0  0  0  0  0  0  0  0  0  0
  129.2170    3.4146    0.6239 C   0  0  0  0  0  0  0  0  0  0  0  0
  128.2628    2.4686    0.4495 C   0  0  0  0  0  0  0  0  0  0  0  0
  128.9509    1.2307    0.2180 C   0  0  0  0  0  0  0  0  0  0  0  0
  128.3112    0.0006   -0.0063 C   0  0  0  0  0  0  0  0  0  0  0  0
  128.9744   -1.2169   -0.2308 C   0  0  0  0  0  0  0  0  0  0  0  0
  128.3103   -2.4685   -0.4589 C   0  0  0  0  0  0  0  0  0  0  0  0
  129.2826   -3.3957   -0.6347 C   0  0  0  0  0  0  0  0  0  0  0  0
  130.5368   -2.7080   -0.5138 C   0  0  0  0  0  0  0  0  0  0  0  0
  130.3174   -1.3856   -0.2678 N   0  0  0  0  0  0  0  0  0  0  0  0
  131.7769   -3.3125   -0.6331 C   0  0  0  0  0  0  0  0  0  0  0  0
  133.0045   -2.6808   -0.5229 C   0  0  0  0  0  0  0  0  0  0  0  0
  134.2769   -3.3377   -0.6523 C   0  0  0  0  0  0  0  0  0  0  0  0
  135.2250   -2.3874   -0.4804 C   0  0  0  0  0  0  0  0  0  0  0  0
  134.5325   -1.1490   -0.2455 C   0  0  0  0  0  0  0  0  0  0  0  0
  133.1903   -1.3573   -0.2773 N   0  0  0  0  0  0  0  0  0  0  0  0
  135.1526    0.0693   -0.0206 C   0  0  0  0  0  0  0  0  0  0  0  0
  134.5091    1.2746    0.2082 C   0  0  0  0  0  0  0  0  0  0  0  0
  135.1777    2.5268    0.4398 C   0  0  0  0  0  0  0  0  0  0  0  0
  134.2115    3.4575    0.6181 C   0  0  0  0  0  0  0  0  0  0  0  0
  132.9519    2.7749    0.4954 C   0  0  0  0  0  0  0  0  0  0  0  0
  133.1632    1.4556    0.2478 N   0  0  0  0  0  0  0  0  0  0  0  0
  131.7124    3.3815    0.6125 C   0  0  0  0  0  0  0  0  0  0  0  0
  130.4842    2.7522    0.4980 C   0  0  0  0  0  0  0  0  0  0  0  0
  130.2904    1.4259    0.2516 N   0  0  0  0  0  0  0  0  0  0  0  0
  129.0894    4.4619    0.8192 H   0  0  0  0  0  0  0  0  0  0  0  0
  127.1960    2.5812    0.4727 H   0  0  0  0  0  0  0  0  0  0  0  0
  127.2458   -2.6022   -0.4788 H   0  0  0  0  0  0  0  0  0  0  0  0
  129.1752   -4.4455   -0.8284 H   0  0  0  0  0  0  0  0  0  0  0  0
  131.7864   -4.3755   -0.8306 H   0  0  0  0  0  0  0  0  0  0  0  0
  134.4076   -4.3847   -0.8483 H   0  0  0  0  0  0  0  0  0  0  0  0
  136.2923   -2.4956   -0.5064 H   0  0  0  0  0  0  0  0  0  0  0  0
  136.2336    0.0803   -0.0238 H   0  0  0  0  0  0  0  0  0  0  0  0
  136.2427    2.6567    0.4597 H   0  0  0  0  0  0  0  0  0  0  0  0
  134.3218    4.5068    0.8141 H   0  0  0  0  0  0  0  0  0  0  0  0
  131.7013    4.4442    0.8110 H   0  0  0  0  0  0  0  0  0  0  0  0
   40.6140    0.0555    0.0047 C   0  0  0  0  0  0  0  0  0  0  0  0
   41.8338    0.0648    0.0064 C   0  0  0  0  0  0  0  0  0  0  0  0
   43.1695    0.0732    0.0050 C   0  0  0  0  0  0  0  0  0  0  0  0
   44.3937    0.0775    0.0023 C   0  0  0  0  0  0  0  0  0  0  0  0
   45.7293    0.0779   -0.0006 C   0  0  0  0  0  0  0  0  0  0  0  0
   46.9493    0.0768   -0.0039 C   0  0  0  0  0  0  0  0  0  0  0  0
   56.6095    0.0408   -0.0260 C   0  0  0  0  0  0  0  0  0  0  0  0
   57.8295    0.0374   -0.0271 C   0  0  0  0  0  0  0  0  0  0  0  0
   59.1645    0.0363   -0.0261 C   0  0  0  0  0  0  0  0  0  0  0  0
   60.3888    0.0355   -0.0266 C   0  0  0  0  0  0  0  0  0  0  0  0
   61.7238    0.0357   -0.0253 C   0  0  0  0  0  0  0  0  0  0  0  0
   62.9438    0.0345   -0.0245 C   0  0  0  0  0  0  0  0  0  0  0  0
   72.6012    0.0403   -0.0203 C   0  0  0  0  0  0  0  0  0  0  0  0
   73.8212    0.0408   -0.0203 C   0  0  0  0  0  0  0  0  0  0  0  0
   75.1561    0.0414   -0.0219 C   0  0  0  0  0  0  0  0  0  0  0  0
   76.3803    0.0414   -0.0207 C   0  0  0  0  0  0  0  0  0  0  0  0
   77.7152    0.0418   -0.0225 C   0  0  0  0  0  0  0  0  0  0  0  0
   78.9352    0.0413   -0.0220 C   0  0  0  0  0  0  0  0  0  0  0  0
   88.5920    0.0361   -0.0225 C   0  0  0  0  0  0  0  0  0  0  0  0
   89.8120    0.0358   -0.0232 C   0  0  0  0  0  0  0  0  0  0  0  0
   91.1469    0.0376   -0.0215 C   0  0  0  0  0  0  0  0  0  0  0  0
   92.3712    0.0383   -0.0220 C   0  0  0  0  0  0  0  0  0  0  0  0
   93.7061    0.0379   -0.0208 C   0  0  0  0  0  0  0  0  0  0  0  0
   94.9261    0.0386   -0.0219 C   0  0  0  0  0  0  0  0  0  0  0  0
  104.5836    0.0490   -0.0231 C   0  0  0  0  0  0  0  0  0  0  0  0
  105.8036    0.0490   -0.0238 C   0  0  0  0  0  0  0  0  0  0  0  0
  107.1387    0.0488   -0.0250 C   0  0  0  0  0  0  0  0  0  0  0  0
  108.3630    0.0474   -0.0248 C   0  0  0  0  0  0  0  0  0  0  0  0
  109.6981    0.0443   -0.0247 C   0  0  0  0  0  0  0  0  0  0  0  0
  110.9180    0.0397   -0.0232 C   0  0  0  0  0  0  0  0  0  0  0  0
  120.5785   -0.0156   -0.0134 C   0  0  0  0  0  0  0  0  0  0  0  0
  121.7984   -0.0215   -0.0116 C   0  0  0  0  0  0  0  0  0  0  0  0
  123.1341   -0.0245   -0.0116 C   0  0  0  0  0  0  0  0  0  0  0  0
  124.3582   -0.0235   -0.0062 C   0  0  0  0  0  0  0  0  0  0  0  0
  125.6941   -0.0179   -0.0058 C   0  0  0  0  0  0  0  0  0  0  0  0
  126.9139   -0.0115   -0.0070 C   0  0  0  0  0  0  0  0  0  0  0  0
   51.7799    0.0585   -0.0173 Zn  0  0  0  0  0  0  0  0  0  0  0  0
   49.2737   -3.3722    0.3813 C   0  0  0  0  0  0  0  0  0  0  0  0
   48.3135   -2.4217    0.2758 C   0  0  0  0  0  0  0  0  0  0  0  0
   48.9938   -1.1669    0.1307 C   0  0  0  0  0  0  0  0  0  0  0  0
   48.3458    0.0718   -0.0078 C   0  0  0  0  0  0  0  0  0  0  0  0
   49.0026    1.3054   -0.1504 C   0  0  0  0  0  0  0  0  0  0  0  0
   48.3311    2.5653   -0.2923 C   0  0  0  0  0  0  0  0  0  0  0  0
   49.2980    3.5083   -0.4043 C   0  0  0  0  0  0  0  0  0  0  0  0
   50.5553    2.8213   -0.3302 C   0  0  0  0  0  0  0  0  0  0  0  0
   50.3443    1.4835   -0.1756 N   0  0  0  0  0  0  0  0  0  0  0  0
   51.7920    3.4387   -0.4058 C   0  0  0  0  0  0  0  0  0  0  0  0
   53.0242    2.8119   -0.3379 C   0  0  0  0  0  0  0  0  0  0  0  0
   54.2865    3.4889   -0.4197 C   0  0  0  0  0  0  0  0  0  0  0  0
   55.2465    2.5384   -0.3126 C   0  0  0  0  0  0  0  0  0  0  0  0
   54.5657    1.2839   -0.1660 C   0  0  0  0  0  0  0  0  0  0  0  0
   53.2255    1.4725   -0.1841 N   0  0  0  0  0  0  0  0  0  0  0  0
   55.2135    0.0454   -0.0246 C   0  0  0  0  0  0  0  0  0  0  0  0
   54.5571   -1.1883    0.1183 C   0  0  0  0  0  0  0  0  0  0  0  0
   55.2289   -2.4479    0.2609 C   0  0  0  0  0  0  0  0  0  0  0  0
   54.2622   -3.3913    0.3710 C   0  0  0  0  0  0  0  0  0  0  0  0
   53.0047   -2.7046    0.2953 C   0  0  0  0  0  0  0  0  0  0  0  0
   53.2156   -1.3666    0.1419 N   0  0  0  0  0  0  0  0  0  0  0  0
   51.7681   -3.3220    0.3689 C   0  0  0  0  0  0  0  0  0  0  0  0
   50.5358   -2.6949    0.3006 C   0  0  0  0  0  0  0  0  0  0  0  0
   50.3343   -1.3554    0.1483 N   0  0  0  0  0  0  0  0  0  0  0  0
   49.1530   -4.4314    0.5024 H   0  0  0  0  0  0  0  0  0  0  0  0
   47.2475   -2.5417    0.2926 H   0  0  0  0  0  0  0  0  0  0  0  0
   47.2660    2.6935   -0.3031 H   0  0  0  0  0  0  0  0  0  0  0  0
   49.1848    4.5682   -0.5258 H   0  0  0  0  0  0  0  0  0  0  0  0
   51.7957    4.5129   -0.5295 H   0  0  0  0  0  0  0  0  0  0  0  0
   54.4075    4.5479   -0.5423 H   0  0  0  0  0  0  0  0  0  0  0  0
   56.3125    2.6582   -0.3295 H   0  0  0  0  0  0  0  0  0  0  0  0
   56.2941   -2.5758    0.2729 H   0  0  0  0  0  0  0  0  0  0  0  0
   54.3757   -4.4513    0.4919 H   0  0  0  0  0  0  0  0  0  0  0  0
   51.7641   -4.3962    0.4918 H   0  0  0  0  0  0  0  0  0  0  0  0
   67.7726    0.0376   -0.0214 Zn  0  0  0  0  0  0  0  0  0  0  0  0
   65.2802   -3.4032    0.3806 C   0  0  0  0  0  0  0  0  0  0  0  0
   64.3166   -2.4569    0.2694 C   0  0  0  0  0  0  0  0  0  0  0  0
   64.9924   -1.1999    0.1219 C   0  0  0  0  0  0  0  0  0  0  0  0
   64.3398    0.0355   -0.0238 C   0  0  0  0  0  0  0  0  0  0  0  0
   64.9910    1.2718   -0.1682 C   0  0  0  0  0  0  0  0  0  0  0  0
   64.3139    2.5280   -0.3158 C   0  0  0  0  0  0  0  0  0  0  0  0
   65.2766    3.4755   -0.4256 C   0  0  0  0  0  0  0  0  0  0  0  0
   66.5369    2.7949   -0.3446 C   0  0  0  0  0  0  0  0  0  0  0  0
   66.3318    1.4563   -0.1883 N   0  0  0  0  0  0  0  0  0  0  0  0
   67.7709    3.4180   -0.4160 C   0  0  0  0  0  0  0  0  0  0  0  0
   69.0055    2.7965   -0.3425 C   0  0  0  0  0  0  0  0  0  0  0  0
   70.2651    3.4787   -0.4213 C   0  0  0  0  0  0  0  0  0  0  0  0
   71.2288    2.5323   -0.3106 C   0  0  0  0  0  0  0  0  0  0  0  0
   70.5528    1.2753   -0.1644 C   0  0  0  0  0  0  0  0  0  0  0  0
   69.2120    1.4582   -0.1864 N   0  0  0  0  0  0  0  0  0  0  0  0
   71.2053    0.0396   -0.0202 C   0  0  0  0  0  0  0  0  0  0  0  0
   70.5541   -1.1968    0.1239 C   0  0  0  0  0  0  0  0  0  0  0  0
   71.2314   -2.4530    0.2706 C   0  0  0  0  0  0  0  0  0  0  0  0
   70.2688   -3.4005    0.3811 C   0  0  0  0  0  0  0  0  0  0  0  0
   69.0085   -2.7198    0.3012 C   0  0  0  0  0  0  0  0  0  0  0  0
   69.2134   -1.3812    0.1450 N   0  0  0  0  0  0  0  0  0  0  0  0
   67.7745   -3.3427    0.3739 C   0  0  0  0  0  0  0  0  0  0  0  0
   66.5398   -2.7211    0.3010 C   0  0  0  0  0  0  0  0  0  0  0  0
   66.3334   -1.3828    0.1439 N   0  0  0  0  0  0  0  0  0  0  0  0
   65.1634   -4.4625    0.5050 H   0  0  0  0  0  0  0  0  0  0  0  0
   63.2510   -2.5811    0.2837 H   0  0  0  0  0  0  0  0  0  0  0  0
   63.2482    2.6510   -0.3314 H   0  0  0  0  0  0  0  0  0  0  0  0
   65.1587    4.5347   -0.5497 H   0  0  0  0  0  0  0  0  0  0  0  0
   67.7703    4.4919   -0.5415 H   0  0  0  0  0  0  0  0  0  0  0  0
   70.3821    4.5381   -0.5447 H   0  0  0  0  0  0  0  0  0  0  0  0
   72.2944    2.6565   -0.3245 H   0  0  0  0  0  0  0  0  0  0  0  0
   72.2971   -2.5761    0.2853 H   0  0  0  0  0  0  0  0  0  0  0  0
   70.3868   -4.4597    0.5047 H   0  0  0  0  0  0  0  0  0  0  0  0
   67.7750   -4.4166    0.4994 H   0  0  0  0  0  0  0  0  0  0  0  0
   83.7636    0.0389   -0.0224 Zn  0  0  0  0  0  0  0  0  0  0  0  0
   81.2675   -3.3983    0.3884 C   0  0  0  0  0  0  0  0  0  0  0  0
   80.3049   -2.4509    0.2768 C   0  0  0  0  0  0  0  0  0  0  0  0
   80.9823   -1.1952    0.1258 C   0  0  0  0  0  0  0  0  0  0  0  0
   80.3311    0.0407   -0.0223 C   0  0  0  0  0  0  0  0  0  0  0  0
   80.9835    1.2759   -0.1706 C   0  0  0  0  0  0  0  0  0  0  0  0
   80.3075    2.5324   -0.3216 C   0  0  0  0  0  0  0  0  0  0  0  0
   81.2711    3.4788   -0.4329 C   0  0  0  0  0  0  0  0  0  0  0  0
   82.5307    2.7971   -0.3496 C   0  0  0  0  0  0  0  0  0  0  0  0
   82.3244    1.4591   -0.1908 N   0  0  0  0  0  0  0  0  0  0  0  0
   83.7654    3.4190   -0.4199 C   0  0  0  0  0  0  0  0  0  0  0  0
   84.9993    2.7965   -0.3439 C   0  0  0  0  0  0  0  0  0  0  0  0
   86.2597    3.4775   -0.4208 C   0  0  0  0  0  0  0  0  0  0  0  0
   87.2223    2.5301   -0.3094 C   0  0  0  0  0  0  0  0  0  0  0  0
   86.5450    1.2737   -0.1643 C   0  0  0  0  0  0  0  0  0  0  0  0
   85.2043    1.4579   -0.1877 N   0  0  0  0  0  0  0  0  0  0  0  0
   87.1961    0.0371   -0.0212 C   0  0  0  0  0  0  0  0  0  0  0  0
   86.5437   -1.1987    0.1210 C   0  0  0  0  0  0  0  0  0  0  0  0
   87.2197   -2.4560    0.2652 C   0  0  0  0  0  0  0  0  0  0  0  0
   86.2561   -3.4023    0.3768 C   0  0  0  0  0  0  0  0  0  0  0  0
   84.9965   -2.7200    0.2996 C   0  0  0  0  0  0  0  0  0  0  0  0
   85.2028   -1.3816    0.1436 N   0  0  0  0  0  0  0  0  0  0  0  0
   83.7618   -3.3413    0.3756 C   0  0  0  0  0  0  0  0  0  0  0  0
   82.5279   -2.7180    0.3050 C   0  0  0  0  0  0  0  0  0  0  0  0
   82.3229   -1.3798    0.1460 N   0  0  0  0  0  0  0  0  0  0  0  0
   81.1495   -4.4571    0.5151 H   0  0  0  0  0  0  0  0  0  0  0  0
   79.2392   -2.5737    0.2933 H   0  0  0  0  0  0  0  0  0  0  0  0
   79.2419    2.6563   -0.3382 H   0  0  0  0  0  0  0  0  0  0  0  0
   81.1542    4.5377   -0.5593 H   0  0  0  0  0  0  0  0  0  0  0  0
   83.7660    4.4929   -0.5462 H   0  0  0  0  0  0  0  0  0  0  0  0
   86.3777    4.5368   -0.5433 H   0  0  0  0  0  0  0  0  0  0  0  0
   88.2880    2.6534   -0.3218 H   0  0  0  0  0  0  0  0  0  0  0  0
   88.2852   -2.5803    0.2779 H   0  0  0  0  0  0  0  0  0  0  0  0
   86.3730   -4.4618    0.4995 H   0  0  0  0  0  0  0  0  0  0  0  0
   83.7613   -4.4150    0.5021 H   0  0  0  0  0  0  0  0  0  0  0  0
   99.7547    0.0442   -0.0223 Zn  0  0  0  0  0  0  0  0  0  0  0  0
   97.2639   -3.3971    0.3870 C   0  0  0  0  0  0  0  0  0  0  0  0
   96.2998   -2.4514    0.2746 C   0  0  0  0  0  0  0  0  0  0  0  0
   96.9751   -1.1944    0.1248 C   0  0  0  0  0  0  0  0  0  0  0  0
   96.3220    0.0405   -0.0225 C   0  0  0  0  0  0  0  0  0  0  0  0
   96.9725    1.2769   -0.1692 C   0  0  0  0  0  0  0  0  0  0  0  0
   96.2946    2.5326   -0.3185 C   0  0  0  0  0  0  0  0  0  0  0  0
   97.2568    3.4803   -0.4307 C   0  0  0  0  0  0  0  0  0  0  0  0
   98.5175    2.8004   -0.3496 C   0  0  0  0  0  0  0  0  0  0  0  0
   98.3131    1.4620   -0.1907 N   0  0  0  0  0  0  0  0  0  0  0  0
   99.7512    3.4238   -0.4229 C   0  0  0  0  0  0  0  0  0  0  0  0
  100.9862    2.8029   -0.3486 C   0  0  0  0  0  0  0  0  0  0  0  0
  102.2454    3.4857   -0.4284 C   0  0  0  0  0  0  0  0  0  0  0  0
  103.2096    2.5399   -0.3168 C   0  0  0  0  0  0  0  0  0  0  0  0
  102.5344    1.2828   -0.1682 C   0  0  0  0  0  0  0  0  0  0  0  0
  101.1933    1.4649   -0.1905 N   0  0  0  0  0  0  0  0  0  0  0  0
  103.1876    0.0477   -0.0226 C   0  0  0  0  0  0  0  0  0  0  0  0
  102.5369   -1.1888    0.1232 C   0  0  0  0  0  0  0  0  0  0  0  0
  103.2147   -2.4447    0.2707 C   0  0  0  0  0  0  0  0  0  0  0  0
  102.2524   -3.3923    0.3839 C   0  0  0  0  0  0  0  0  0  0  0  0
  100.9919   -2.7121    0.3039 C   0  0  0  0  0  0  0  0  0  0  0  0
  101.1963   -1.3737    0.1454 N   0  0  0  0  0  0  0  0  0  0  0  0
   99.7581   -3.3354    0.3787 C   0  0  0  0  0  0  0  0  0  0  0  0
   98.5232   -2.7145    0.3056 C   0  0  0  0  0  0  0  0  0  0  0  0
   98.3161   -1.3766    0.1465 N   0  0  0  0  0  0  0  0  0  0  0  0
   97.1475   -4.4562    0.5131 H   0  0  0  0  0  0  0  0  0  0  0  0
   95.2343   -2.5760    0.2894 H   0  0  0  0  0  0  0  0  0  0  0  0
   95.2289    2.6551   -0.3335 H   0  0  0  0  0  0  0  0  0  0  0  0
   97.1383    4.5392   -0.5566 H   0  0  0  0  0  0  0  0  0  0  0  0
   99.7501    4.4975   -0.5500 H   0  0  0  0  0  0  0  0  0  0  0  0
  102.3616    4.5450   -0.5531 H   0  0  0  0  0  0  0  0  0  0  0  0
  104.2750    2.6647   -0.3311 H   0  0  0  0  0  0  0  0  0  0  0  0
  104.2804   -2.5674    0.2845 H   0  0  0  0  0  0  0  0  0  0  0  0
  102.3709   -4.4512    0.5092 H   0  0  0  0  0  0  0  0  0  0  0  0
   99.7593   -4.4091    0.5063 H   0  0  0  0  0  0  0  0  0  0  0  0
  115.7476    0.0117   -0.0203 Zn  0  0  0  0  0  0  0  0  0  0  0  0
  113.2328   -3.4136    0.3740 C   0  0  0  0  0  0  0  0  0  0  0  0
  112.2751   -2.4608    0.2660 C   0  0  0  0  0  0  0  0  0  0  0  0
  112.9588   -1.2079    0.1205 C   0  0  0  0  0  0  0  0  0  0  0  0
  112.3141    0.0319   -0.0231 C   0  0  0  0  0  0  0  0  0  0  0  0
  112.9735    1.2640   -0.1658 C   0  0  0  0  0  0  0  0  0  0  0  0
  112.3047    2.5249   -0.3120 C   0  0  0  0  0  0  0  0  0  0  0  0
  113.2738    3.4662   -0.4198 C   0  0  0  0  0  0  0  0  0  0  0  0
  114.5295    2.7771   -0.3384 C   0  0  0  0  0  0  0  0  0  0  0  0
  114.3154    1.4396   -0.1846 N   0  0  0  0  0  0  0  0  0  0  0  0
  115.7677    3.3921   -0.4060 C   0  0  0  0  0  0  0  0  0  0  0  0
  116.9985    2.7628   -0.3308 C   0  0  0  0  0  0  0  0  0  0  0  0
  118.2622    3.4379   -0.4043 C   0  0  0  0  0  0  0  0  0  0  0  0
  119.2201    2.4856   -0.2941 C   0  0  0  0  0  0  0  0  0  0  0  0
  118.5367    1.2319   -0.1539 C   0  0  0  0  0  0  0  0  0  0  0  0
  117.1967    1.4228   -0.1784 N   0  0  0  0  0  0  0  0  0  0  0  0
  119.1818   -0.0084   -0.0159 C   0  0  0  0  0  0  0  0  0  0  0  0
  118.5221   -1.2411    0.1196 C   0  0  0  0  0  0  0  0  0  0  0  0
  119.1905   -2.5028    0.2605 C   0  0  0  0  0  0  0  0  0  0  0  0
  118.2212   -3.4440    0.3675 C   0  0  0  0  0  0  0  0  0  0  0  0
  116.9657   -2.7541    0.2915 C   0  0  0  0  0  0  0  0  0  0  0  0
  117.1799   -1.4165    0.1403 N   0  0  0  0  0  0  0  0  0  0  0  0
  115.7274   -3.3689    0.3639 C   0  0  0  0  0  0  0  0  0  0  0  0
  114.4967   -2.7393    0.2948 C   0  0  0  0  0  0  0  0  0  0  0  0
  114.2986   -1.3994    0.1413 N   0  0  0  0  0  0  0  0  0  0  0  0
  113.1092   -4.4723    0.4959 H   0  0  0  0  0  0  0  0  0  0  0  0
  111.2087   -2.5783    0.2810 H   0  0  0  0  0  0  0  0  0  0  0  0
  111.2399    2.6549   -0.3284 H   0  0  0  0  0  0  0  0  0  0  0  0
  113.1629    4.5262   -0.5426 H   0  0  0  0  0  0  0  0  0  0  0  0
  115.7743    4.4663   -0.5290 H   0  0  0  0  0  0  0  0  0  0  0  0
  118.3855    4.4969   -0.5241 H   0  0  0  0  0  0  0  0  0  0  0  0
  120.2864    2.6037   -0.3052 H   0  0  0  0  0  0  0  0  0  0  0  0
  120.2553   -2.6333    0.2742 H   0  0  0  0  0  0  0  0  0  0  0  0
  118.3318   -4.5044    0.4869 H   0  0  0  0  0  0  0  0  0  0  0  0
  115.7211   -4.4432    0.4862 H   0  0  0  0  0  0  0  0  0  0  0  0
  2  3  2  0  0  0  0
  3  4  1  0  0  0  0
  4  5  4  0  0  0  0
  5  6  4  0  0  0  0
  6  7  1  0  0  0  0
  7  8  2  0  0  0  0
  8  9  1  0  0  0  0
  1 10  1  0  0  0  0
  6 10  4  0  0  0  0
  9 10  4  0  0  0  0
  9 11  4  0  0  0  0
 11 12  4  0  0  0  0
 12 13  1  0  0  0  0
 13 14  2  0  0  0  0
 14 15  1  0  0  0  0
  1 16  1  0  0  0  0
 12 16  4  0  0  0  0
 15 16  4  0  0  0  0
 15 17  4  0  0  0  0
 17 18  4  0  0  0  0
 18 19  1  0  0  0  0
 19 20  2  0  0  0  0
 20 21  1  0  0  0  0
  1 22  1  0  0  0  0
 18 22  4  0  0  0  0
 21 22  4  0  0  0  0
 21 23  4  0  0  0  0
  2 24  1  0  0  0  0
 23 24  4  0  0  0  0
  1 25  1  0  0  0  0
  4 25  4  0  0  0  0
 24 25  4  0  0  0  0
  2 26  1  0  0  0  0
  3 27  1  0  0  0  0
  7 28  1  0  0  0  0
  8 29  1  0  0  0  0
 11 30  1  0  0  0  0
 13 31  1  0  0  0  0
 14 32  1  0  0  0  0
 17 33  1  0  0  0  0
 19 34  1  0  0  0  0
 20 35  1  0  0  0  0
 23 36  1  0  0  0  0
 38 39  2  0  0  0  0
 39 40  1  0  0  0  0
 40 41  4  0  0  0  0
 41 42  4  0  0  0  0
 42 43  1  0  0  0  0
 43 44  2  0  0  0  0
 44 45  1  0  0  0  0
 37 46  1  0  0  0  0
 42 46  4  0  0  0  0
 45 46  4  0  0  0  0
 45 47  4  0  0  0  0
 47 48  4  0  0  0  0
 48 49  1  0  0  0  0
 49 50  2  0  0  0  0
 50 51  1  0  0  0  0
 37 52  1  0  0  0  0
 48 52  4  0  0  0  0
 51 52  4  0  0  0  0
 51 53  4  0  0  0  0
 53 54  4  0  0  0  0
 54 55  1  0  0  0  0
 55 56  2  0  0  0  0
 56 57  1  0  0  0  0
 37 58  1  0  0  0  0
 54 58  4  0  0  0  0
 57 58  4  0  0  0  0
 57 59  4  0  0  0  0
 38 60  1  0  0  0  0
 59 60  4  0  0  0  0
 37 61  1  0  0  0  0
 40 61  4  0  0  0  0
 60 61  4  0  0  0  0
 38 62  1  0  0  0  0
 39 63  1  0  0  0  0
 43 64  1  0  0  0  0
 44 65  1  0  0  0  0
 47 66  1  0  0  0  0
 49 67  1  0  0  0  0
 50 68  1  0  0  0  0
 53 69  1  0  0  0  0
 55 70  1  0  0  0  0
 56 71  1  0  0  0  0
 59 72  1  0  0  0  0
  5 73  1  0  0  0  0
 73 74  3  0  0  0  0
 74 75  4  0  0  0  0
 75 76  3  0  0  0  0
 76 77  4  0  0  0  0
 77 78  3  0  0  0  0
 79 80  3  0  0  0  0
 80 81  4  0  0  0  0
 81 82  3  0  0  0  0
 82 83  4  0  0  0  0
 83 84  3  0  0  0  0
 85 86  3  0  0  0  0
 86 87  4  0  0  0  0
 87 88  3  0  0  0  0
 88 89  4  0  0  0  0
 89 90  3  0  0  0  0
 91 92  3  0  0  0  0
 92 93  4  0  0  0  0
 93 94  3  0  0  0  0
 94 95  4  0  0  0  0
 95 96  3  0  0  0  0
 97 98  3  0  0  0  0
 98 99  4  0  0  0  0
 99100  3  0  0  0  0
100101  4  0  0  0  0
101102  3  0  0  0  0
103104  3  0  0  0  0
104105  4  0  0  0  0
105106  3  0  0  0  0
106107  4  0  0  0  0
 41108  1  0  0  0  0
107108  3  0  0  0  0
110111  2  0  0  0  0
111112  1  0  0  0  0
 78113  1  0  0  0  0
112113  4  0  0  0  0
113114  4  0  0  0  0
114115  1  0  0  0  0
115116  2  0  0  0  0
116117  1  0  0  0  0
109118  1  0  0  0  0
114118  4  0  0  0  0
117118  4  0  0  0  0
117119  4  0  0  0  0
119120  4  0  0  0  0
120121  1  0  0  0  0
121122  2  0  0  0  0
122123  1  0  0  0  0
109124  1  0  0  0  0
120124  4  0  0  0  0
123124  4  0  0  0  0
 79125  1  0  0  0  0
123125  4  0  0  0  0
125126  4  0  0  0  0
126127  1  0  0  0  0
127128  2  0  0  0  0
128129  1  0  0  0  0
109130  1  0  0  0  0
126130  4  0  0  0  0
129130  4  0  0  0  0
129131  4  0  0  0  0
110132  1  0  0  0  0
131132  4  0  0  0  0
109133  1  0  0  0  0
112133  4  0  0  0  0
132133  4  0  0  0  0
110134  1  0  0  0  0
111135  1  0  0  0  0
115136  1  0  0  0  0
116137  1  0  0  0  0
119138  1  0  0  0  0
121139  1  0  0  0  0
122140  1  0  0  0  0
127141  1  0  0  0  0
128142  1  0  0  0  0
131143  1  0  0  0  0
145146  2  0  0  0  0
146147  1  0  0  0  0
 84148  1  0  0  0  0
147148  4  0  0  0  0
148149  4  0  0  0  0
149150  1  0  0  0  0
150151  2  0  0  0  0
151152  1  0  0  0  0
144153  1  0  0  0  0
149153  4  0  0  0  0
152153  4  0  0  0  0
152154  4  0  0  0  0
154155  4  0  0  0  0
155156  1  0  0  0  0
156157  2  0  0  0  0
157158  1  0  0  0  0
144159  1  0  0  0  0
155159  4  0  0  0  0
158159  4  0  0  0  0
 85160  1  0  0  0  0
158160  4  0  0  0  0
160161  4  0  0  0  0
161162  1  0  0  0  0
162163  2  0  0  0  0
163164  1  0  0  0  0
144165  1  0  0  0  0
161165  4  0  0  0  0
164165  4  0  0  0  0
164166  4  0  0  0  0
145167  1  0  0  0  0
166167  4  0  0  0  0
144168  1  0  0  0  0
147168  4  0  0  0  0
167168  4  0  0  0  0
145169  1  0  0  0  0
146170  1  0  0  0  0
150171  1  0  0  0  0
151172  1  0  0  0  0
154173  1  0  0  0  0
156174  1  0  0  0  0
157175  1  0  0  0  0
162176  1  0  0  0  0
163177  1  0  0  0  0
166178  1  0  0  0  0
180181  2  0  0  0  0
181182  1  0  0  0  0
 90183  1  0  0  0  0
182183  4  0  0  0  0
183184  4  0  0  0  0
184185  1  0  0  0  0
185186  2  0  0  0  0
186187  1  0  0  0  0
179188  1  0  0  0  0
184188  4  0  0  0  0
187188  4  0  0  0  0
187189  4  0  0  0  0
189190  4  0  0  0  0
190191  1  0  0  0  0
191192  2  0  0  0  0
192193  1  0  0  0  0
179194  1  0  0  0  0
190194  4  0  0  0  0
193194  4  0  0  0  0
 91195  1  0  0  0  0
193195  4  0  0  0  0
195196  4  0  0  0  0
196197  1  0  0  0  0
197198  2  0  0  0  0
198199  1  0  0  0  0
179200  1  0  0  0  0
196200  4  0  0  0  0
199200  4  0  0  0  0
199201  4  0  0  0  0
180202  1  0  0  0  0
201202  4  0  0  0  0
179203  1  0  0  0  0
182203  4  0  0  0  0
202203  4  0  0  0  0
180204  1  0  0  0  0
181205  1  0  0  0  0
185206  1  0  0  0  0
186207  1  0  0  0  0
189208  1  0  0  0  0
191209  1  0  0  0  0
192210  1  0  0  0  0
197211  1  0  0  0  0
198212  1  0  0  0  0
201213  1  0  0  0  0
215216  2  0  0  0  0
216217  1  0  0  0  0
 96218  1  0  0  0  0
217218  4  0  0  0  0
218219  4  0  0  0  0
219220  1  0  0  0  0
220221  2  0  0  0  0
221222  1  0  0  0  0
214223  1  0  0  0  0
219223  4  0  0  0  0
222223  4  0  0  0  0
222224  4  0  0  0  0
224225  4  0  0  0  0
225226  1  0  0  0  0
226227  2  0  0  0  0
227228  1  0  0  0  0
214229  1  0  0  0  0
225229  4  0  0  0  0
228229  4  0  0  0  0
 97230  1  0  0  0  0
228230  4  0  0  0  0
230231  4  0  0  0  0
231232  1  0  0  0  0
232233  2  0  0  0  0
233234  1  0  0  0  0
214235  1  0  0  0  0
231235  4  0  0  0  0
234235  4  0  0  0  0
234236  4  0  0  0  0
215237  1  0  0  0  0
236237  4  0  0  0  0
214238  1  0  0  0  0
217238  4  0  0  0  0
237238  4  0  0  0  0
215239  1  0  0  0  0
216240  1  0  0  0  0
220241  1  0  0  0  0
221242  1  0  0  0  0
224243  1  0  0  0  0
226244  1  0  0  0  0
227245  1  0  0  0  0
232246  1  0  0  0  0
233247  1  0  0  0  0
236248  1  0  0  0  0
250251  2  0  0  0  0
251252  1  0  0  0  0
102253  1  0  0  0  0
252253  4  0  0  0  0
253254  4  0  0  0  0
254255  1  0  0  0  0
255256  2  0  0  0  0
256257  1  0  0  0  0
249258  1  0  0  0  0
254258  4  0  0  0  0
257258  4  0  0  0  0
257259  4  0  0  0  0
259260  4  0  0  0  0
260261  1  0  0  0  0
261262  2  0  0  0  0
262263  1  0  0  0  0
249264  1  0  0  0  0
260264  4  0  0  0  0
263264  4  0  0  0  0
103265  1  0  0  0  0
263265  4  0  0  0  0
265266  4  0  0  0  0
266267  1  0  0  0  0
267268  2  0  0  0  0
268269  1  0  0  0  0
249270  1  0  0  0  0
266270  4  0  0  0  0
269270  4  0  0  0  0
269271  4  0  0  0  0
250272  1  0  0  0  0
271272  4  0  0  0  0
249273  1  0  0  0  0
252273  4  0  0  0  0
272273  4  0  0  0  0
250274  1  0  0  0  0
251275  1  0  0  0  0
255276  1  0  0  0  0
256277  1  0  0  0  0
259278  1  0  0  0  0
261279  1  0  0  0  0
262280  1  0  0  0  0
267281  1  0  0  0  0
268282  1  0  0  0  0
271283  1  0  0  0  0
M  END
