111

Co 15.838463 0.035598 -0.009931
C 18.167454 -3.111195 1.312757
C 19.083561 -2.166988 1.262475
C 18.672381 -1.113084 0.341183
C 19.291252 0.011262 -0.005226
C 18.587210 1.231211 -0.369332
C 18.915320 2.191265 -1.216805
C 17.880540 3.207551 -1.233703
C 16.944272 2.831089 -0.386811
N 17.346263 1.598078 0.177006
C 15.683198 3.476088 -0.007660
C 14.587981 2.841306 0.343100
C 13.514355 3.159262 1.312129
C 12.676792 2.162508 1.234962
C 13.115090 1.158825 0.254510
N 14.220028 1.597678 -0.229782
C 12.504255 -0.094446 -0.159038
C 13.168416 -1.198953 -0.413462
C 12.794567 -2.261894 -1.370990
C 13.743314 -3.155650 -1.281970
C 14.729038 -2.718200 -0.299093
N 14.375992 -1.572395 0.197705
C 15.959926 -3.374271 0.146629
C 17.082967 -2.728409 0.413750
N 17.411567 -1.480968 -0.184654
H 18.227715 -4.020976 1.930304
H 19.999888 -2.206937 1.840524
H 19.842685 2.208061 -1.817949
H 17.897439 4.112239 -1.846325
H 15.635475 4.570891 -0.011437
H 13.461534 4.037987 1.937121
H 11.765162 2.126838 1.852286
H 11.406005 -0.091535 -0.258308
H 11.925711 -2.314359 -2.019940
H 13.740468 -4.071958 -1.880730
H 15.924444 -4.470072 0.258553
Co 40.002765 -0.011778 -0.014364
C 37.673774 2.835014 1.869140
C 36.757666 1.916524 1.644567
C 37.168846 1.051828 0.543753
C 36.549975 0.011262 -0.005226
C 37.254018 -1.119962 -0.589329
C 36.925907 -1.906134 -1.600196
C 37.960687 -2.901643 -1.805336
C 38.896955 -2.688827 -0.903306
N 38.494965 -1.581815 -0.120535
C 40.158029 -3.392968 -0.650393
C 41.253247 -2.834275 -0.187960
C 42.326872 -3.326481 0.705262
C 43.164435 -2.332714 0.814347
C 42.726137 -1.164565 0.037112
N 41.621199 -1.505957 -0.520187
C 43.336972 0.143670 -0.136757
C 42.672812 1.276204 -0.181864
C 43.046660 2.498329 -0.925579
C 42.097913 3.360057 -0.672300
C 41.112189 2.747862 0.212363
N 41.465235 1.529783 0.487973
C 39.881301 3.309856 0.772058
C 38.758260 2.625652 0.914725
N 38.429660 1.510877 0.095291
H 37.613512 3.614438 2.644744
H 35.841339 1.848544 2.219992
H 35.998542 -1.811117 -2.194021
H 37.943788 -3.676978 -2.575156
H 40.205752 -4.468066 -0.857206
H 42.379694 -4.305897 1.156389
H 44.076065 -2.412186 1.427573
H 44.435223 0.159226 -0.234845
H 43.915516 2.670273 -1.553531
H 42.100759 4.371538 -1.090678
H 39.916784 4.365873 1.085327
C 21.905700 0.011262 -0.005226
C 23.121905 0.011262 -0.005226
C 32.719322 0.011262 -0.005226
C 33.935527 0.011262 -0.005226
Co 27.952110 0.024064 0.008259
C 25.672299 -3.237383 -0.901407
C 24.716090 -2.338033 -1.003433
C 25.108464 -1.175728 -0.200917
C 24.473347 -0.024456 0.011349
C 25.158804 1.250144 0.237578
C 24.823514 2.328744 0.941819
C 25.848055 3.348061 0.851237
C 26.798653 2.851136 0.077872
N 26.421658 1.534531 -0.338271
C 28.045792 3.462838 -0.338993
C 29.147344 2.795580 -0.670765
C 30.140890 3.047565 -1.704935
C 31.034773 2.086706 -1.603451
C 30.655075 1.174822 -0.499474
N 29.560160 1.624141 0.007893
C 31.312282 -0.024456 0.011349
C 30.688871 -1.093638 0.472866
C 31.067583 -2.025753 1.548341
C 30.126915 -2.939899 1.634207
C 29.118613 -2.644120 0.636780
N 29.456388 -1.590743 -0.012515
C 27.866220 -3.351127 0.305587
C 26.752344 -2.754431 -0.041754
N 26.370231 -1.471674 0.375928
H 25.672643 -4.228457 -1.392641
H 23.807555 -2.459727 -1.584581
H 23.898662 2.447095 1.518744
H 25.875350 4.337225 1.307887
H 28.131732 4.560215 -0.401016
H 30.173563 3.853781 -2.431759
H 31.927835 1.973738 -2.237225
H 31.982334 -1.951347 2.158511
H 30.145961 -3.753507 2.342475
H 27.904705 -4.451087 0.364623
