
  xtb     11212119113D
 xtb: 6.4.1 (bd6e46d)
193232  0     0  0            999 V2000
   28.5998    0.0041   -0.0124 Fe  0  0  0  0  0  0  0  0  0  0  0  0
   31.1014   -3.3835    0.0129 C   0  0  0  0  0  0  0  0  0  0  0  0
   32.0925   -2.4614    0.0136 C   0  0  0  0  0  0  0  0  0  0  0  0
   31.4505   -1.1827    0.0048 C   0  0  0  0  0  0  0  0  0  0  0  0
   32.1253    0.0418    0.0003 C   0  0  0  0  0  0  0  0  0  0  0  0
   31.4247    1.2516   -0.0063 C   0  0  0  0  0  0  0  0  0  0  0  0
   32.0392    2.5438   -0.0072 C   0  0  0  0  0  0  0  0  0  0  0  0
   31.0286    3.4444   -0.0093 C   0  0  0  0  0  0  0  0  0  0  0  0
   29.8043    2.6965   -0.0106 C   0  0  0  0  0  0  0  0  0  0  0  0
   30.0678    1.3518   -0.0088 N   0  0  0  0  0  0  0  0  0  0  0  0
   28.5621    3.3002   -0.0137 C   0  0  0  0  0  0  0  0  0  0  0  0
   27.3347    2.6673   -0.0188 C   0  0  0  0  0  0  0  0  0  0  0  0
   26.0908    3.3864   -0.0247 C   0  0  0  0  0  0  0  0  0  0  0  0
   25.1040    2.4624   -0.0317 C   0  0  0  0  0  0  0  0  0  0  0  0
   25.7479    1.1809   -0.0294 C   0  0  0  0  0  0  0  0  0  0  0  0
   27.1055    1.3193   -0.0213 N   0  0  0  0  0  0  0  0  0  0  0  0
   25.0910   -0.0335   -0.0346 C   0  0  0  0  0  0  0  0  0  0  0  0
   25.7737   -1.2335   -0.0296 C   0  0  0  0  0  0  0  0  0  0  0  0
   25.1573   -2.5285   -0.0328 C   0  0  0  0  0  0  0  0  0  0  0  0
   26.1637   -3.4312   -0.0232 C   0  0  0  0  0  0  0  0  0  0  0  0
   27.3919   -2.6857   -0.0146 C   0  0  0  0  0  0  0  0  0  0  0  0
   27.1339   -1.3428   -0.0191 N   0  0  0  0  0  0  0  0  0  0  0  0
   28.6325   -3.2921   -0.0032 C   0  0  0  0  0  0  0  0  0  0  0  0
   29.8614   -2.6619    0.0032 C   0  0  0  0  0  0  0  0  0  0  0  0
   30.0961   -1.3119   -0.0011 N   0  0  0  0  0  0  0  0  0  0  0  0
   31.1824   -4.4533    0.0180 H   0  0  0  0  0  0  0  0  0  0  0  0
   33.1549   -2.6097    0.0192 H   0  0  0  0  0  0  0  0  0  0  0  0
   33.0982    2.7147   -0.0056 H   0  0  0  0  0  0  0  0  0  0  0  0
   31.0867    4.5157   -0.0101 H   0  0  0  0  0  0  0  0  0  0  0  0
   28.5505    4.3810   -0.0134 H   0  0  0  0  0  0  0  0  0  0  0  0
   26.0084    4.4564   -0.0240 H   0  0  0  0  0  0  0  0  0  0  0  0
   24.0415    2.6111   -0.0377 H   0  0  0  0  0  0  0  0  0  0  0  0
   24.0122   -0.0450   -0.0420 H   0  0  0  0  0  0  0  0  0  0  0  0
   24.0983   -2.6999   -0.0410 H   0  0  0  0  0  0  0  0  0  0  0  0
   26.1042   -4.5027   -0.0220 H   0  0  0  0  0  0  0  0  0  0  0  0
   28.6440   -4.3729    0.0001 H   0  0  0  0  0  0  0  0  0  0  0  0
   83.0966    0.0392   -0.0113 Fe  0  0  0  0  0  0  0  0  0  0  0  0
   80.6042    3.3814    0.5816 C   0  0  0  0  0  0  0  0  0  0  0  0
   79.6106    2.4762    0.4211 C   0  0  0  0  0  0  0  0  0  0  0  0
   80.2491    1.2149    0.2002 C   0  0  0  0  0  0  0  0  0  0  0  0
   79.5712    0.0094   -0.0040 C   0  0  0  0  0  0  0  0  0  0  0  0
   80.2684   -1.1847   -0.2093 C   0  0  0  0  0  0  0  0  0  0  0  0
   79.6503   -2.4570   -0.4254 C   0  0  0  0  0  0  0  0  0  0  0  0
   80.6584   -3.3457   -0.5878 C   0  0  0  0  0  0  0  0  0  0  0  0
   81.8848   -2.6105   -0.4699 C   0  0  0  0  0  0  0  0  0  0  0  0
   81.6250   -1.2856   -0.2363 N   0  0  0  0  0  0  0  0  0  0  0  0
   83.1252   -3.2062   -0.5881 C   0  0  0  0  0  0  0  0  0  0  0  0
   84.3543   -2.5842   -0.4903 C   0  0  0  0  0  0  0  0  0  0  0  0
   85.5962   -3.2931   -0.6305 C   0  0  0  0  0  0  0  0  0  0  0  0
   86.5855   -2.3851   -0.4749 C   0  0  0  0  0  0  0  0  0  0  0  0
   85.9452   -1.1235   -0.2399 C   0  0  0  0  0  0  0  0  0  0  0  0
   84.5872   -1.2579   -0.2531 N   0  0  0  0  0  0  0  0  0  0  0  0
   86.6054    0.0699   -0.0249 C   0  0  0  0  0  0  0  0  0  0  0  0
   85.9261    1.2513    0.1963 C   0  0  0  0  0  0  0  0  0  0  0  0
   86.5461    2.5237    0.4282 C   0  0  0  0  0  0  0  0  0  0  0  0
   85.5423    3.4139    0.5938 C   0  0  0  0  0  0  0  0  0  0  0  0
   84.3119    2.6835    0.4623 C   0  0  0  0  0  0  0  0  0  0  0  0
   84.5661    1.3618    0.2208 N   0  0  0  0  0  0  0  0  0  0  0  0
   83.0730    3.2838    0.5698 C   0  0  0  0  0  0  0  0  0  0  0  0
   81.8423    2.6672    0.4573 C   0  0  0  0  0  0  0  0  0  0  0  0
   81.6039    1.3385    0.2224 N   0  0  0  0  0  0  0  0  0  0  0  0
   80.5261    4.4352    0.7673 H   0  0  0  0  0  0  0  0  0  0  0  0
   78.5486    2.6252    0.4469 H   0  0  0  0  0  0  0  0  0  0  0  0
   78.5909   -2.6238   -0.4469 H   0  0  0  0  0  0  0  0  0  0  0  0
   80.5973   -4.4011   -0.7711 H   0  0  0  0  0  0  0  0  0  0  0  0
   83.1338   -4.2703   -0.7773 H   0  0  0  0  0  0  0  0  0  0  0  0
   85.6755   -4.3460   -0.8222 H   0  0  0  0  0  0  0  0  0  0  0  0
   87.6476   -2.5325   -0.5114 H   0  0  0  0  0  0  0  0  0  0  0  0
   87.6843    0.0794   -0.0294 H   0  0  0  0  0  0  0  0  0  0  0  0
   87.6057    2.6897    0.4561 H   0  0  0  0  0  0  0  0  0  0  0  0
   85.6047    4.4676    0.7868 H   0  0  0  0  0  0  0  0  0  0  0  0
   83.0644    4.3476    0.7611 H   0  0  0  0  0  0  0  0  0  0  0  0
   33.5217    0.0556    0.0022 C   0  0  0  0  0  0  0  0  0  0  0  0
   34.7394    0.0638    0.0020 C   0  0  0  0  0  0  0  0  0  0  0  0
   36.0817    0.0695    0.0010 C   0  0  0  0  0  0  0  0  0  0  0  0
   37.2995    0.0716   -0.0006 C   0  0  0  0  0  0  0  0  0  0  0  0
   47.1481    0.0487   -0.0216 C   0  0  0  0  0  0  0  0  0  0  0  0
   48.3659    0.0461   -0.0215 C   0  0  0  0  0  0  0  0  0  0  0  0
   49.7076    0.0445   -0.0216 C   0  0  0  0  0  0  0  0  0  0  0  0
   50.9254    0.0434   -0.0209 C   0  0  0  0  0  0  0  0  0  0  0  0
   60.7712    0.0435   -0.0199 C   0  0  0  0  0  0  0  0  0  0  0  0
   61.9890    0.0407   -0.0205 C   0  0  0  0  0  0  0  0  0  0  0  0
   63.3306    0.0367   -0.0213 C   0  0  0  0  0  0  0  0  0  0  0  0
   64.5485    0.0317   -0.0208 C   0  0  0  0  0  0  0  0  0  0  0  0
   74.3969   -0.0091   -0.0061 C   0  0  0  0  0  0  0  0  0  0  0  0
   75.6146   -0.0091   -0.0041 C   0  0  0  0  0  0  0  0  0  0  0  0
   76.9570   -0.0063   -0.0034 C   0  0  0  0  0  0  0  0  0  0  0  0
   78.1746   -0.0010   -0.0032 C   0  0  0  0  0  0  0  0  0  0  0  0
   42.2242    0.0605   -0.0130 Fe  0  0  0  0  0  0  0  0  0  0  0  0
   39.7500   -3.3255    0.3792 C   0  0  0  0  0  0  0  0  0  0  0  0
   38.7505   -2.4179    0.2776 C   0  0  0  0  0  0  0  0  0  0  0  0
   39.3812   -1.1420    0.1309 C   0  0  0  0  0  0  0  0  0  0  0  0
   38.6953    0.0694   -0.0036 C   0  0  0  0  0  0  0  0  0  0  0  0
   39.3864    1.2773   -0.1416 C   0  0  0  0  0  0  0  0  0  0  0  0
   38.7614    2.5562   -0.2851 C   0  0  0  0  0  0  0  0  0  0  0  0
   39.7648    3.4588   -0.3924 C   0  0  0  0  0  0  0  0  0  0  0  0
   40.9946    2.7248   -0.3137 C   0  0  0  0  0  0  0  0  0  0  0  0
   40.7418    1.3867   -0.1595 N   0  0  0  0  0  0  0  0  0  0  0  0
   42.2316    3.3337   -0.3892 C   0  0  0  0  0  0  0  0  0  0  0  0
   43.4662    2.7189   -0.3232 C   0  0  0  0  0  0  0  0  0  0  0  0
   44.6994    3.4461   -0.4114 C   0  0  0  0  0  0  0  0  0  0  0  0
   45.6986    2.5382   -0.3088 C   0  0  0  0  0  0  0  0  0  0  0  0
   45.0674    1.2630   -0.1592 C   0  0  0  0  0  0  0  0  0  0  0  0
   43.7128    1.3796   -0.1689 N   0  0  0  0  0  0  0  0  0  0  0  0
   45.7528    0.0519   -0.0204 C   0  0  0  0  0  0  0  0  0  0  0  0
   45.0620   -1.1560    0.1200 C   0  0  0  0  0  0  0  0  0  0  0  0
   45.6876   -2.4345    0.2655 C   0  0  0  0  0  0  0  0  0  0  0  0
   44.6845   -3.3375    0.3710 C   0  0  0  0  0  0  0  0  0  0  0  0
   43.4545   -2.6042    0.2894 C   0  0  0  0  0  0  0  0  0  0  0  0
   43.7069   -1.2660    0.1354 N   0  0  0  0  0  0  0  0  0  0  0  0
   42.2173   -3.2129    0.3616 C   0  0  0  0  0  0  0  0  0  0  0  0
   40.9829   -2.5977    0.2937 C   0  0  0  0  0  0  0  0  0  0  0  0
   40.7360   -1.2583    0.1413 N   0  0  0  0  0  0  0  0  0  0  0  0
   39.6787   -4.3891    0.5009 H   0  0  0  0  0  0  0  0  0  0  0  0
   37.6896   -2.5744    0.2979 H   0  0  0  0  0  0  0  0  0  0  0  0
   37.7011    2.7180   -0.2995 H   0  0  0  0  0  0  0  0  0  0  0  0
   39.6982    4.5227   -0.5138 H   0  0  0  0  0  0  0  0  0  0  0  0
   42.2338    4.4075   -0.5130 H   0  0  0  0  0  0  0  0  0  0  0  0
   44.7712    4.5094   -0.5350 H   0  0  0  0  0  0  0  0  0  0  0  0
   46.7596    2.6942   -0.3300 H   0  0  0  0  0  0  0  0  0  0  0  0
   46.7480   -2.5957    0.2818 H   0  0  0  0  0  0  0  0  0  0  0  0
   44.7516   -4.4014    0.4929 H   0  0  0  0  0  0  0  0  0  0  0  0
   42.2146   -4.2868    0.4846 H   0  0  0  0  0  0  0  0  0  0  0  0
   55.8483    0.0437   -0.0200 Fe  0  0  0  0  0  0  0  0  0  0  0  0
   53.3812   -3.3474    0.3801 C   0  0  0  0  0  0  0  0  0  0  0  0
   52.3801   -2.4422    0.2730 C   0  0  0  0  0  0  0  0  0  0  0  0
   53.0087   -1.1658    0.1225 C   0  0  0  0  0  0  0  0  0  0  0  0
   52.3207    0.0434   -0.0204 C   0  0  0  0  0  0  0  0  0  0  0  0
   53.0086    1.2526   -0.1629 C   0  0  0  0  0  0  0  0  0  0  0  0
   52.3799    2.5290   -0.3135 C   0  0  0  0  0  0  0  0  0  0  0  0
   53.3808    3.4343   -0.4205 C   0  0  0  0  0  0  0  0  0  0  0  0
   54.6125    2.7045   -0.3345 C   0  0  0  0  0  0  0  0  0  0  0  0
   54.3634    1.3662   -0.1764 N   0  0  0  0  0  0  0  0  0  0  0  0
   55.8481    3.3165   -0.4072 C   0  0  0  0  0  0  0  0  0  0  0  0
   57.0838    2.7047   -0.3351 C   0  0  0  0  0  0  0  0  0  0  0  0
   58.3154    3.4346   -0.4218 C   0  0  0  0  0  0  0  0  0  0  0  0
   59.3165    2.5294   -0.3144 C   0  0  0  0  0  0  0  0  0  0  0  0
   58.6879    1.2531   -0.1631 C   0  0  0  0  0  0  0  0  0  0  0  0
   57.3331    1.3664   -0.1764 N   0  0  0  0  0  0  0  0  0  0  0  0
   59.3759    0.0440   -0.0198 C   0  0  0  0  0  0  0  0  0  0  0  0
   58.6880   -1.1652    0.1236 C   0  0  0  0  0  0  0  0  0  0  0  0
   59.3168   -2.4414    0.2751 C   0  0  0  0  0  0  0  0  0  0  0  0
   58.3158   -3.3468    0.3821 C   0  0  0  0  0  0  0  0  0  0  0  0
   57.0841   -2.6171    0.2953 C   0  0  0  0  0  0  0  0  0  0  0  0
   57.3332   -1.2788    0.1368 N   0  0  0  0  0  0  0  0  0  0  0  0
   55.8485   -3.2292    0.3672 C   0  0  0  0  0  0  0  0  0  0  0  0
   54.6128   -2.6174    0.2943 C   0  0  0  0  0  0  0  0  0  0  0  0
   54.3636   -1.2791    0.1362 N   0  0  0  0  0  0  0  0  0  0  0  0
   53.3118   -4.4107    0.5056 H   0  0  0  0  0  0  0  0  0  0  0  0
   51.3195   -2.6007    0.2915 H   0  0  0  0  0  0  0  0  0  0  0  0
   51.3191    2.6873   -0.3321 H   0  0  0  0  0  0  0  0  0  0  0  0
   53.3112    4.4976   -0.5460 H   0  0  0  0  0  0  0  0  0  0  0  0
   55.8480    4.3900   -0.5344 H   0  0  0  0  0  0  0  0  0  0  0  0
   58.3848    4.4978   -0.5479 H   0  0  0  0  0  0  0  0  0  0  0  0
   60.3772    2.6878   -0.3332 H   0  0  0  0  0  0  0  0  0  0  0  0
   60.3775   -2.5997    0.2941 H   0  0  0  0  0  0  0  0  0  0  0  0
   58.3854   -4.4100    0.5081 H   0  0  0  0  0  0  0  0  0  0  0  0
   55.8486   -4.3027    0.4940 H   0  0  0  0  0  0  0  0  0  0  0  0
   69.4722    0.0104   -0.0171 Fe  0  0  0  0  0  0  0  0  0  0  0  0
   66.9894   -3.3711    0.3675 C   0  0  0  0  0  0  0  0  0  0  0  0
   65.9924   -2.4607    0.2679 C   0  0  0  0  0  0  0  0  0  0  0  0
   66.6264   -1.1867    0.1201 C   0  0  0  0  0  0  0  0  0  0  0  0
   65.9438    0.0257   -0.0206 C   0  0  0  0  0  0  0  0  0  0  0  0
   66.6372    1.2320   -0.1613 C   0  0  0  0  0  0  0  0  0  0  0  0
   66.0145    2.5112   -0.3125 C   0  0  0  0  0  0  0  0  0  0  0  0
   67.0196    3.4127   -0.4121 C   0  0  0  0  0  0  0  0  0  0  0  0
   68.2479    2.6778   -0.3206 C   0  0  0  0  0  0  0  0  0  0  0  0
   67.9925    1.3399   -0.1686 N   0  0  0  0  0  0  0  0  0  0  0  0
   69.4865    3.2853   -0.3787 C   0  0  0  0  0  0  0  0  0  0  0  0
   70.7194    2.6684   -0.2999 C   0  0  0  0  0  0  0  0  0  0  0  0
   71.9540    3.3952   -0.3682 C   0  0  0  0  0  0  0  0  0  0  0  0
   72.9514    2.4856   -0.2641 C   0  0  0  0  0  0  0  0  0  0  0  0
   72.3177    1.2094   -0.1333 C   0  0  0  0  0  0  0  0  0  0  0  0
   70.9632    1.3277   -0.1543 N   0  0  0  0  0  0  0  0  0  0  0  0
   73.0008   -0.0045   -0.0090 C   0  0  0  0  0  0  0  0  0  0  0  0
   72.3072   -1.2127    0.1116 C   0  0  0  0  0  0  0  0  0  0  0  0
   72.9294   -2.4943    0.2438 C   0  0  0  0  0  0  0  0  0  0  0  0
   71.9240   -3.3957    0.3416 C   0  0  0  0  0  0  0  0  0  0  0  0
   70.6959   -2.6584    0.2683 C   0  0  0  0  0  0  0  0  0  0  0  0
   70.9516   -1.3196    0.1258 N   0  0  0  0  0  0  0  0  0  0  0  0
   69.4574   -3.2649    0.3410 C   0  0  0  0  0  0  0  0  0  0  0  0
   68.2243   -2.6467    0.2800 C   0  0  0  0  0  0  0  0  0  0  0  0
   67.9808   -1.3064    0.1297 N   0  0  0  0  0  0  0  0  0  0  0  0
   66.9153   -4.4346    0.4887 H   0  0  0  0  0  0  0  0  0  0  0  0
   64.9310   -2.6142    0.2895 H   0  0  0  0  0  0  0  0  0  0  0  0
   64.9545    2.6740   -0.3365 H   0  0  0  0  0  0  0  0  0  0  0  0
   66.9550    4.4766   -0.5354 H   0  0  0  0  0  0  0  0  0  0  0  0
   69.4916    4.3596   -0.4982 H   0  0  0  0  0  0  0  0  0  0  0  0
   72.0277    4.4596   -0.4812 H   0  0  0  0  0  0  0  0  0  0  0  0
   74.0126    2.6408   -0.2739 H   0  0  0  0  0  0  0  0  0  0  0  0
   73.9894   -2.6583    0.2586 H   0  0  0  0  0  0  0  0  0  0  0  0
   71.9882   -4.4608    0.4535 H   0  0  0  0  0  0  0  0  0  0  0  0
   69.4529   -4.3394    0.4586 H   0  0  0  0  0  0  0  0  0  0  0  0
  2  3  2  0  0  0  0
  3  4  1  0  0  0  0
  4  5  4  0  0  0  0
  5  6  4  0  0  0  0
  6  7  1  0  0  0  0
  7  8  2  0  0  0  0
  8  9  1  0  0  0  0
  1 10  1  0  0  0  0
  6 10  4  0  0  0  0
  9 10  4  0  0  0  0
  9 11  4  0  0  0  0
 11 12  4  0  0  0  0
 12 13  1  0  0  0  0
 13 14  2  0  0  0  0
 14 15  1  0  0  0  0
  1 16  1  0  0  0  0
 12 16  4  0  0  0  0
 15 16  4  0  0  0  0
 15 17  4  0  0  0  0
 17 18  4  0  0  0  0
 18 19  1  0  0  0  0
 19 20  2  0  0  0  0
 20 21  1  0  0  0  0
  1 22  1  0  0  0  0
 18 22  4  0  0  0  0
 21 22  4  0  0  0  0
 21 23  4  0  0  0  0
  2 24  1  0  0  0  0
 23 24  4  0  0  0  0
  1 25  1  0  0  0  0
  4 25  4  0  0  0  0
 24 25  4  0  0  0  0
  2 26  1  0  0  0  0
  3 27  1  0  0  0  0
  7 28  1  0  0  0  0
  8 29  1  0  0  0  0
 11 30  1  0  0  0  0
 13 31  1  0  0  0  0
 14 32  1  0  0  0  0
 17 33  1  0  0  0  0
 19 34  1  0  0  0  0
 20 35  1  0  0  0  0
 23 36  1  0  0  0  0
 38 39  2  0  0  0  0
 39 40  1  0  0  0  0
 40 41  4  0  0  0  0
 41 42  4  0  0  0  0
 42 43  1  0  0  0  0
 43 44  2  0  0  0  0
 44 45  1  0  0  0  0
 37 46  1  0  0  0  0
 42 46  4  0  0  0  0
 45 46  4  0  0  0  0
 45 47  4  0  0  0  0
 47 48  4  0  0  0  0
 48 49  1  0  0  0  0
 49 50  2  0  0  0  0
 50 51  1  0  0  0  0
 37 52  1  0  0  0  0
 48 52  4  0  0  0  0
 51 52  4  0  0  0  0
 51 53  4  0  0  0  0
 53 54  4  0  0  0  0
 54 55  1  0  0  0  0
 55 56  2  0  0  0  0
 56 57  1  0  0  0  0
 37 58  1  0  0  0  0
 54 58  4  0  0  0  0
 57 58  4  0  0  0  0
 57 59  4  0  0  0  0
 38 60  1  0  0  0  0
 59 60  4  0  0  0  0
 37 61  1  0  0  0  0
 40 61  4  0  0  0  0
 60 61  4  0  0  0  0
 38 62  1  0  0  0  0
 39 63  1  0  0  0  0
 43 64  1  0  0  0  0
 44 65  1  0  0  0  0
 47 66  1  0  0  0  0
 49 67  1  0  0  0  0
 50 68  1  0  0  0  0
 53 69  1  0  0  0  0
 55 70  1  0  0  0  0
 56 71  1  0  0  0  0
 59 72  1  0  0  0  0
  5 73  1  0  0  0  0
 73 74  3  0  0  0  0
 74 75  4  0  0  0  0
 75 76  3  0  0  0  0
 77 78  3  0  0  0  0
 78 79  4  0  0  0  0
 79 80  3  0  0  0  0
 81 82  3  0  0  0  0
 82 83  4  0  0  0  0
 83 84  3  0  0  0  0
 85 86  3  0  0  0  0
 86 87  4  0  0  0  0
 41 88  1  0  0  0  0
 87 88  3  0  0  0  0
 90 91  2  0  0  0  0
 91 92  1  0  0  0  0
 76 93  1  0  0  0  0
 92 93  4  0  0  0  0
 93 94  4  0  0  0  0
 94 95  1  0  0  0  0
 95 96  2  0  0  0  0
 96 97  1  0  0  0  0
 89 98  1  0  0  0  0
 94 98  4  0  0  0  0
 97 98  4  0  0  0  0
 97 99  4  0  0  0  0
 99100  4  0  0  0  0
100101  1  0  0  0  0
101102  2  0  0  0  0
102103  1  0  0  0  0
 89104  1  0  0  0  0
100104  4  0  0  0  0
103104  4  0  0  0  0
 77105  1  0  0  0  0
103105  4  0  0  0  0
105106  4  0  0  0  0
106107  1  0  0  0  0
107108  2  0  0  0  0
108109  1  0  0  0  0
 89110  1  0  0  0  0
106110  4  0  0  0  0
109110  4  0  0  0  0
109111  4  0  0  0  0
 90112  1  0  0  0  0
111112  4  0  0  0  0
 89113  1  0  0  0  0
 92113  4  0  0  0  0
112113  4  0  0  0  0
 90114  1  0  0  0  0
 91115  1  0  0  0  0
 95116  1  0  0  0  0
 96117  1  0  0  0  0
 99118  1  0  0  0  0
101119  1  0  0  0  0
102120  1  0  0  0  0
107121  1  0  0  0  0
108122  1  0  0  0  0
111123  1  0  0  0  0
125126  2  0  0  0  0
126127  1  0  0  0  0
 80128  1  0  0  0  0
127128  4  0  0  0  0
128129  4  0  0  0  0
129130  1  0  0  0  0
130131  2  0  0  0  0
131132  1  0  0  0  0
124133  1  0  0  0  0
129133  4  0  0  0  0
132133  4  0  0  0  0
132134  4  0  0  0  0
134135  4  0  0  0  0
135136  1  0  0  0  0
136137  2  0  0  0  0
137138  1  0  0  0  0
124139  1  0  0  0  0
135139  4  0  0  0  0
138139  4  0  0  0  0
 81140  1  0  0  0  0
138140  4  0  0  0  0
140141  4  0  0  0  0
141142  1  0  0  0  0
142143  2  0  0  0  0
143144  1  0  0  0  0
124145  1  0  0  0  0
141145  4  0  0  0  0
144145  4  0  0  0  0
144146  4  0  0  0  0
125147  1  0  0  0  0
146147  4  0  0  0  0
124148  1  0  0  0  0
127148  4  0  0  0  0
147148  4  0  0  0  0
125149  1  0  0  0  0
126150  1  0  0  0  0
130151  1  0  0  0  0
131152  1  0  0  0  0
134153  1  0  0  0  0
136154  1  0  0  0  0
137155  1  0  0  0  0
142156  1  0  0  0  0
143157  1  0  0  0  0
146158  1  0  0  0  0
160161  2  0  0  0  0
161162  1  0  0  0  0
 84163  1  0  0  0  0
162163  4  0  0  0  0
163164  4  0  0  0  0
164165  1  0  0  0  0
165166  2  0  0  0  0
166167  1  0  0  0  0
159168  1  0  0  0  0
164168  4  0  0  0  0
167168  4  0  0  0  0
167169  4  0  0  0  0
169170  4  0  0  0  0
170171  1  0  0  0  0
171172  2  0  0  0  0
172173  1  0  0  0  0
159174  1  0  0  0  0
170174  4  0  0  0  0
173174  4  0  0  0  0
 85175  1  0  0  0  0
173175  4  0  0  0  0
175176  4  0  0  0  0
176177  1  0  0  0  0
177178  2  0  0  0  0
178179  1  0  0  0  0
159180  1  0  0  0  0
176180  4  0  0  0  0
179180  4  0  0  0  0
179181  4  0  0  0  0
160182  1  0  0  0  0
181182  4  0  0  0  0
159183  1  0  0  0  0
162183  4  0  0  0  0
182183  4  0  0  0  0
160184  1  0  0  0  0
161185  1  0  0  0  0
165186  1  0  0  0  0
166187  1  0  0  0  0
169188  1  0  0  0  0
171189  1  0  0  0  0
172190  1  0  0  0  0
177191  1  0  0  0  0
178192  1  0  0  0  0
181193  1  0  0  0  0
M  END
