
  xtb     11212121103D
 xtb: 6.4.1 (bd6e46d)
154185  0     0  0            999 V2000
   21.7373    0.0012   -0.0085 Ni  0  0  0  0  0  0  0  0  0  0  0  0
   24.2354   -3.4112    0.0577 C   0  0  0  0  0  0  0  0  0  0  0  0
   25.1872   -2.4509    0.0535 C   0  0  0  0  0  0  0  0  0  0  0  0
   24.4981   -1.1960    0.0242 C   0  0  0  0  0  0  0  0  0  0  0  0
   25.1648    0.0327    0.0036 C   0  0  0  0  0  0  0  0  0  0  0  0
   24.4762    1.2493   -0.0128 C   0  0  0  0  0  0  0  0  0  0  0  0
   25.1422    2.5169   -0.0235 C   0  0  0  0  0  0  0  0  0  0  0  0
   24.1728    3.4595   -0.0170 C   0  0  0  0  0  0  0  0  0  0  0  0
   22.9227    2.7607   -0.0048 C   0  0  0  0  0  0  0  0  0  0  0  0
   23.1236    1.4061   -0.0051 N   0  0  0  0  0  0  0  0  0  0  0  0
   21.7021    3.4033    0.0095 C   0  0  0  0  0  0  0  0  0  0  0  0
   20.4948    2.7358    0.0088 C   0  0  0  0  0  0  0  0  0  0  0  0
   19.2271    3.4075    0.0146 C   0  0  0  0  0  0  0  0  0  0  0  0
   18.2806    2.4443   -0.0074 C   0  0  0  0  0  0  0  0  0  0  0  0
   18.9744    1.1883   -0.0243 C   0  0  0  0  0  0  0  0  0  0  0  0
   20.3264    1.3804   -0.0111 N   0  0  0  0  0  0  0  0  0  0  0  0
   18.3274   -0.0302   -0.0544 C   0  0  0  0  0  0  0  0  0  0  0  0
   18.9970   -1.2368   -0.0595 C   0  0  0  0  0  0  0  0  0  0  0  0
   18.3270   -2.5055   -0.0828 C   0  0  0  0  0  0  0  0  0  0  0  0
   19.2908   -3.4513   -0.0620 C   0  0  0  0  0  0  0  0  0  0  0  0
   20.5455   -2.7563   -0.0282 C   0  0  0  0  0  0  0  0  0  0  0  0
   20.3520   -1.4041   -0.0302 N   0  0  0  0  0  0  0  0  0  0  0  0
   21.7645   -3.4012    0.0069 C   0  0  0  0  0  0  0  0  0  0  0  0
   22.9727   -2.7359    0.0289 C   0  0  0  0  0  0  0  0  0  0  0  0
   23.1487   -1.3778    0.0127 N   0  0  0  0  0  0  0  0  0  0  0  0
   24.3540   -4.4771    0.0765 H   0  0  0  0  0  0  0  0  0  0  0  0
   26.2546   -2.5558    0.0684 H   0  0  0  0  0  0  0  0  0  0  0  0
   26.2074    2.6416   -0.0327 H   0  0  0  0  0  0  0  0  0  0  0  0
   24.2718    4.5275   -0.0204 H   0  0  0  0  0  0  0  0  0  0  0  0
   21.6923    4.4825    0.0177 H   0  0  0  0  0  0  0  0  0  0  0  0
   19.1059    4.4733    0.0317 H   0  0  0  0  0  0  0  0  0  0  0  0
   17.2127    2.5466   -0.0118 H   0  0  0  0  0  0  0  0  0  0  0  0
   17.2484   -0.0400   -0.0713 H   0  0  0  0  0  0  0  0  0  0  0  0
   17.2614   -2.6276   -0.1098 H   0  0  0  0  0  0  0  0  0  0  0  0
   19.1896   -4.5193   -0.0687 H   0  0  0  0  0  0  0  0  0  0  0  0
   21.7747   -4.4804    0.0141 H   0  0  0  0  0  0  0  0  0  0  0  0
   62.0392    0.0377   -0.0066 Ni  0  0  0  0  0  0  0  0  0  0  0  0
   59.5501    3.4058    0.5835 C   0  0  0  0  0  0  0  0  0  0  0  0
   58.5957    2.4639    0.4099 C   0  0  0  0  0  0  0  0  0  0  0  0
   59.2816    1.2247    0.1992 C   0  0  0  0  0  0  0  0  0  0  0  0
   58.6118    0.0138    0.0008 C   0  0  0  0  0  0  0  0  0  0  0  0
   59.2970   -1.1893   -0.1921 C   0  0  0  0  0  0  0  0  0  0  0  0
   58.6277   -2.4401   -0.3864 C   0  0  0  0  0  0  0  0  0  0  0  0
   59.5945   -3.3716   -0.5468 C   0  0  0  0  0  0  0  0  0  0  0  0
   60.8465   -2.6826   -0.4512 C   0  0  0  0  0  0  0  0  0  0  0  0
   60.6492   -1.3455   -0.2303 N   0  0  0  0  0  0  0  0  0  0  0  0
   62.0651   -3.3157   -0.5816 C   0  0  0  0  0  0  0  0  0  0  0  0
   63.2738   -2.6562   -0.4976 C   0  0  0  0  0  0  0  0  0  0  0  0
   64.5392   -3.3159   -0.6445 C   0  0  0  0  0  0  0  0  0  0  0  0
   65.4882   -2.3661   -0.4988 C   0  0  0  0  0  0  0  0  0  0  0  0
   64.7983   -1.1305   -0.2614 C   0  0  0  0  0  0  0  0  0  0  0  0
   63.4461   -1.3210   -0.2665 N   0  0  0  0  0  0  0  0  0  0  0  0
   65.4491    0.0676   -0.0490 C   0  0  0  0  0  0  0  0  0  0  0  0
   64.7832    1.2529    0.1873 C   0  0  0  0  0  0  0  0  0  0  0  0
   65.4573    2.4980    0.4206 C   0  0  0  0  0  0  0  0  0  0  0  0
   64.4959    3.4279    0.6075 C   0  0  0  0  0  0  0  0  0  0  0  0
   63.2389    2.7475    0.4851 C   0  0  0  0  0  0  0  0  0  0  0  0
   63.4285    1.4186    0.2319 N   0  0  0  0  0  0  0  0  0  0  0  0
   62.0213    3.3854    0.6015 C   0  0  0  0  0  0  0  0  0  0  0  0
   60.8111    2.7356    0.4749 C   0  0  0  0  0  0  0  0  0  0  0  0
   60.6316    1.3988    0.2371 N   0  0  0  0  0  0  0  0  0  0  0  0
   59.4343    4.4561    0.7678 H   0  0  0  0  0  0  0  0  0  0  0  0
   57.5286    2.5713    0.4216 H   0  0  0  0  0  0  0  0  0  0  0  0
   57.5621   -2.5621   -0.3952 H   0  0  0  0  0  0  0  0  0  0  0  0
   59.4927   -4.4259   -0.7160 H   0  0  0  0  0  0  0  0  0  0  0  0
   62.0720   -4.3798   -0.7616 H   0  0  0  0  0  0  0  0  0  0  0  0
   64.6572   -4.3654   -0.8335 H   0  0  0  0  0  0  0  0  0  0  0  0
   66.5555   -2.4655   -0.5414 H   0  0  0  0  0  0  0  0  0  0  0  0
   66.5281    0.0774   -0.0647 H   0  0  0  0  0  0  0  0  0  0  0  0
   66.5234    2.6164    0.4346 H   0  0  0  0  0  0  0  0  0  0  0  0
   64.6003    4.4767    0.8078 H   0  0  0  0  0  0  0  0  0  0  0  0
   62.0140    4.4467    0.7972 H   0  0  0  0  0  0  0  0  0  0  0  0
   26.5622    0.0440    0.0029 C   0  0  0  0  0  0  0  0  0  0  0  0
   27.7798    0.0596    0.0027 C   0  0  0  0  0  0  0  0  0  0  0  0
   29.1220    0.0655   -0.0011 C   0  0  0  0  0  0  0  0  0  0  0  0
   30.3397    0.0683   -0.0050 C   0  0  0  0  0  0  0  0  0  0  0  0
   39.9996    0.0523   -0.0176 C   0  0  0  0  0  0  0  0  0  0  0  0
   41.2175    0.0442   -0.0174 C   0  0  0  0  0  0  0  0  0  0  0  0
   42.5593    0.0357   -0.0176 C   0  0  0  0  0  0  0  0  0  0  0  0
   43.7771    0.0257   -0.0186 C   0  0  0  0  0  0  0  0  0  0  0  0
   53.4366   -0.0122   -0.0105 C   0  0  0  0  0  0  0  0  0  0  0  0
   54.6543   -0.0077   -0.0072 C   0  0  0  0  0  0  0  0  0  0  0  0
   55.9966   -0.0062   -0.0036 C   0  0  0  0  0  0  0  0  0  0  0  0
   57.2141    0.0066   -0.0013 C   0  0  0  0  0  0  0  0  0  0  0  0
   35.1698    0.0610   -0.0154 Ni  0  0  0  0  0  0  0  0  0  0  0  0
   32.6944   -3.3460    0.3945 C   0  0  0  0  0  0  0  0  0  0  0  0
   31.7347   -2.3992    0.2885 C   0  0  0  0  0  0  0  0  0  0  0  0
   32.4137   -1.1480    0.1357 C   0  0  0  0  0  0  0  0  0  0  0  0
   31.7367    0.0670   -0.0080 C   0  0  0  0  0  0  0  0  0  0  0  0
   32.4171    1.2795   -0.1559 C   0  0  0  0  0  0  0  0  0  0  0  0
   31.7417    2.5327   -0.3084 C   0  0  0  0  0  0  0  0  0  0  0  0
   32.7043    3.4758   -0.4208 C   0  0  0  0  0  0  0  0  0  0  0  0
   33.9589    2.7912   -0.3358 C   0  0  0  0  0  0  0  0  0  0  0  0
   33.7681    1.4445   -0.1750 N   0  0  0  0  0  0  0  0  0  0  0  0
   35.1748    3.4380   -0.4064 C   0  0  0  0  0  0  0  0  0  0  0  0
   36.3888    2.7889   -0.3255 C   0  0  0  0  0  0  0  0  0  0  0  0
   37.6454    3.4713   -0.3977 C   0  0  0  0  0  0  0  0  0  0  0  0
   38.6051    2.5249   -0.2884 C   0  0  0  0  0  0  0  0  0  0  0  0
   37.9261    1.2721   -0.1505 C   0  0  0  0  0  0  0  0  0  0  0  0
   36.5757    1.4406   -0.1726 N   0  0  0  0  0  0  0  0  0  0  0  0
   38.6029    0.0558   -0.0174 C   0  0  0  0  0  0  0  0  0  0  0  0
   37.9223   -1.1586    0.1154 C   0  0  0  0  0  0  0  0  0  0  0  0
   38.5977   -2.4139    0.2495 C   0  0  0  0  0  0  0  0  0  0  0  0
   37.6352   -3.3576    0.3576 C   0  0  0  0  0  0  0  0  0  0  0  0
   36.3807   -2.6711    0.2887 C   0  0  0  0  0  0  0  0  0  0  0  0
   36.5715   -1.3231    0.1386 N   0  0  0  0  0  0  0  0  0  0  0  0
   35.1649   -3.3165    0.3710 C   0  0  0  0  0  0  0  0  0  0  0  0
   33.9509   -2.6654    0.3058 C   0  0  0  0  0  0  0  0  0  0  0  0
   33.7641   -1.3178    0.1487 N   0  0  0  0  0  0  0  0  0  0  0  0
   32.5849   -4.4054    0.5206 H   0  0  0  0  0  0  0  0  0  0  0  0
   30.6682   -2.5111    0.3086 H   0  0  0  0  0  0  0  0  0  0  0  0
   30.6755    2.6482   -0.3245 H   0  0  0  0  0  0  0  0  0  0  0  0
   32.5977    4.5354   -0.5491 H   0  0  0  0  0  0  0  0  0  0  0  0
   35.1764    4.5101   -0.5312 H   0  0  0  0  0  0  0  0  0  0  0  0
   37.7550    4.5317   -0.5163 H   0  0  0  0  0  0  0  0  0  0  0  0
   39.6717    2.6381   -0.2976 H   0  0  0  0  0  0  0  0  0  0  0  0
   39.6639   -2.5305    0.2571 H   0  0  0  0  0  0  0  0  0  0  0  0
   37.7418   -4.4186    0.4734 H   0  0  0  0  0  0  0  0  0  0  0  0
   35.1632   -4.3889    0.4933 H   0  0  0  0  0  0  0  0  0  0  0  0
   48.6067    0.0056   -0.0187 Ni  0  0  0  0  0  0  0  0  0  0  0  0
   46.1231   -3.3944    0.3987 C   0  0  0  0  0  0  0  0  0  0  0  0
   45.1657   -2.4448    0.2960 C   0  0  0  0  0  0  0  0  0  0  0  0
   45.8477   -1.1964    0.1346 C   0  0  0  0  0  0  0  0  0  0  0  0
   45.1738    0.0192   -0.0191 C   0  0  0  0  0  0  0  0  0  0  0  0
   45.8575    1.2292   -0.1741 C   0  0  0  0  0  0  0  0  0  0  0  0
   45.1853    2.4827   -0.3376 C   0  0  0  0  0  0  0  0  0  0  0  0
   46.1502    3.4243   -0.4424 C   0  0  0  0  0  0  0  0  0  0  0  0
   47.4029    2.7385   -0.3416 C   0  0  0  0  0  0  0  0  0  0  0  0
   47.2086    1.3921   -0.1817 N   0  0  0  0  0  0  0  0  0  0  0  0
   48.6201    3.3846   -0.3908 C   0  0  0  0  0  0  0  0  0  0  0  0
   49.8322    2.7338   -0.2954 C   0  0  0  0  0  0  0  0  0  0  0  0
   51.0902    3.4156   -0.3428 C   0  0  0  0  0  0  0  0  0  0  0  0
   52.0476    2.4666   -0.2355 C   0  0  0  0  0  0  0  0  0  0  0  0
   51.3656    1.2127   -0.1240 C   0  0  0  0  0  0  0  0  0  0  0  0
   50.0157    1.3836   -0.1568 N   0  0  0  0  0  0  0  0  0  0  0  0
   52.0395   -0.0076   -0.0140 C   0  0  0  0  0  0  0  0  0  0  0  0
   51.3560   -1.2226    0.0925 C   0  0  0  0  0  0  0  0  0  0  0  0
   52.0282   -2.4818    0.2040 C   0  0  0  0  0  0  0  0  0  0  0  0
   51.0634   -3.4238    0.3066 C   0  0  0  0  0  0  0  0  0  0  0  0
   49.8107   -2.7324    0.2567 C   0  0  0  0  0  0  0  0  0  0  0  0
   50.0047   -1.3834    0.1209 N   0  0  0  0  0  0  0  0  0  0  0  0
   48.5933   -3.3739    0.3487 C   0  0  0  0  0  0  0  0  0  0  0  0
   47.3812   -2.7182    0.2995 C   0  0  0  0  0  0  0  0  0  0  0  0
   47.1976   -1.3701    0.1419 N   0  0  0  0  0  0  0  0  0  0  0  0
   46.0108   -4.4531    0.5285 H   0  0  0  0  0  0  0  0  0  0  0  0
   44.0990   -2.5533    0.3228 H   0  0  0  0  0  0  0  0  0  0  0  0
   44.1195    2.5996   -0.3646 H   0  0  0  0  0  0  0  0  0  0  0  0
   46.0463    4.4837   -0.5743 H   0  0  0  0  0  0  0  0  0  0  0  0
   48.6244    4.4574   -0.5097 H   0  0  0  0  0  0  0  0  0  0  0  0
   51.2024    4.4773   -0.4457 H   0  0  0  0  0  0  0  0  0  0  0  0
   53.1143    2.5785   -0.2318 H   0  0  0  0  0  0  0  0  0  0  0  0
   53.0941   -2.6017    0.2031 H   0  0  0  0  0  0  0  0  0  0  0  0
   51.1673   -4.4865    0.4079 H   0  0  0  0  0  0  0  0  0  0  0  0
   48.5892   -4.4469    0.4657 H   0  0  0  0  0  0  0  0  0  0  0  0
  2  3  2  0  0  0  0
  3  4  1  0  0  0  0
  4  5  4  0  0  0  0
  5  6  4  0  0  0  0
  6  7  1  0  0  0  0
  7  8  2  0  0  0  0
  8  9  1  0  0  0  0
  1 10  1  0  0  0  0
  6 10  4  0  0  0  0
  9 10  4  0  0  0  0
  9 11  4  0  0  0  0
 11 12  4  0  0  0  0
 12 13  1  0  0  0  0
 13 14  2  0  0  0  0
 14 15  1  0  0  0  0
  1 16  1  0  0  0  0
 12 16  4  0  0  0  0
 15 16  4  0  0  0  0
 15 17  4  0  0  0  0
 17 18  4  0  0  0  0
 18 19  1  0  0  0  0
 19 20  2  0  0  0  0
 20 21  1  0  0  0  0
  1 22  1  0  0  0  0
 18 22  4  0  0  0  0
 21 22  4  0  0  0  0
 21 23  4  0  0  0  0
  2 24  1  0  0  0  0
 23 24  4  0  0  0  0
  1 25  1  0  0  0  0
  4 25  4  0  0  0  0
 24 25  4  0  0  0  0
  2 26  1  0  0  0  0
  3 27  1  0  0  0  0
  7 28  1  0  0  0  0
  8 29  1  0  0  0  0
 11 30  1  0  0  0  0
 13 31  1  0  0  0  0
 14 32  1  0  0  0  0
 17 33  1  0  0  0  0
 19 34  1  0  0  0  0
 20 35  1  0  0  0  0
 23 36  1  0  0  0  0
 38 39  2  0  0  0  0
 39 40  1  0  0  0  0
 40 41  4  0  0  0  0
 41 42  4  0  0  0  0
 42 43  1  0  0  0  0
 43 44  2  0  0  0  0
 44 45  1  0  0  0  0
 37 46  1  0  0  0  0
 42 46  4  0  0  0  0
 45 46  4  0  0  0  0
 45 47  4  0  0  0  0
 47 48  4  0  0  0  0
 48 49  1  0  0  0  0
 49 50  2  0  0  0  0
 50 51  1  0  0  0  0
 37 52  1  0  0  0  0
 48 52  4  0  0  0  0
 51 52  4  0  0  0  0
 51 53  4  0  0  0  0
 53 54  4  0  0  0  0
 54 55  1  0  0  0  0
 55 56  2  0  0  0  0
 56 57  1  0  0  0  0
 37 58  1  0  0  0  0
 54 58  4  0  0  0  0
 57 58  4  0  0  0  0
 57 59  4  0  0  0  0
 38 60  1  0  0  0  0
 59 60  4  0  0  0  0
 37 61  1  0  0  0  0
 40 61  4  0  0  0  0
 60 61  4  0  0  0  0
 38 62  1  0  0  0  0
 39 63  1  0  0  0  0
 43 64  1  0  0  0  0
 44 65  1  0  0  0  0
 47 66  1  0  0  0  0
 49 67  1  0  0  0  0
 50 68  1  0  0  0  0
 53 69  1  0  0  0  0
 55 70  1  0  0  0  0
 56 71  1  0  0  0  0
 59 72  1  0  0  0  0
  5 73  1  0  0  0  0
 73 74  3  0  0  0  0
 74 75  4  0  0  0  0
 75 76  3  0  0  0  0
 77 78  3  0  0  0  0
 78 79  4  0  0  0  0
 79 80  3  0  0  0  0
 81 82  3  0  0  0  0
 82 83  4  0  0  0  0
 41 84  1  0  0  0  0
 83 84  3  0  0  0  0
 86 87  2  0  0  0  0
 87 88  1  0  0  0  0
 76 89  1  0  0  0  0
 88 89  4  0  0  0  0
 89 90  4  0  0  0  0
 90 91  1  0  0  0  0
 91 92  2  0  0  0  0
 92 93  1  0  0  0  0
 85 94  1  0  0  0  0
 90 94  4  0  0  0  0
 93 94  4  0  0  0  0
 93 95  4  0  0  0  0
 95 96  4  0  0  0  0
 96 97  1  0  0  0  0
 97 98  2  0  0  0  0
 98 99  1  0  0  0  0
 85100  1  0  0  0  0
 96100  4  0  0  0  0
 99100  4  0  0  0  0
 77101  1  0  0  0  0
 99101  4  0  0  0  0
101102  4  0  0  0  0
102103  1  0  0  0  0
103104  2  0  0  0  0
104105  1  0  0  0  0
 85106  1  0  0  0  0
102106  4  0  0  0  0
105106  4  0  0  0  0
105107  4  0  0  0  0
 86108  1  0  0  0  0
107108  4  0  0  0  0
 85109  1  0  0  0  0
 88109  4  0  0  0  0
108109  4  0  0  0  0
 86110  1  0  0  0  0
 87111  1  0  0  0  0
 91112  1  0  0  0  0
 92113  1  0  0  0  0
 95114  1  0  0  0  0
 97115  1  0  0  0  0
 98116  1  0  0  0  0
103117  1  0  0  0  0
104118  1  0  0  0  0
107119  1  0  0  0  0
121122  2  0  0  0  0
122123  1  0  0  0  0
 80124  1  0  0  0  0
123124  4  0  0  0  0
124125  4  0  0  0  0
125126  1  0  0  0  0
126127  2  0  0  0  0
127128  1  0  0  0  0
120129  1  0  0  0  0
125129  4  0  0  0  0
128129  4  0  0  0  0
128130  4  0  0  0  0
130131  4  0  0  0  0
131132  1  0  0  0  0
132133  2  0  0  0  0
133134  1  0  0  0  0
120135  1  0  0  0  0
131135  4  0  0  0  0
134135  4  0  0  0  0
 81136  1  0  0  0  0
134136  4  0  0  0  0
136137  4  0  0  0  0
137138  1  0  0  0  0
138139  2  0  0  0  0
139140  1  0  0  0  0
120141  1  0  0  0  0
137141  4  0  0  0  0
140141  4  0  0  0  0
140142  4  0  0  0  0
121143  1  0  0  0  0
142143  4  0  0  0  0
120144  1  0  0  0  0
123144  4  0  0  0  0
143144  4  0  0  0  0
121145  1  0  0  0  0
122146  1  0  0  0  0
126147  1  0  0  0  0
127148  1  0  0  0  0
130149  1  0  0  0  0
132150  1  0  0  0  0
133151  1  0  0  0  0
138152  1  0  0  0  0
139153  1  0  0  0  0
142154  1  0  0  0  0
M  END
