
  xtb     11202111583D
 xtb: 6.4.1 (bd6e46d)
259314  0     0  0            999 V2000
   52.2562    0.2833    0.4227 Co  0  0  0  0  0  0  0  0  0  0  0  0
   54.9320   -2.2129    2.4823 C   0  0  0  0  0  0  0  0  0  0  0  0
   55.8099   -1.5820    1.6679 C   0  0  0  0  0  0  0  0  0  0  0  0
   55.0458   -0.6608    0.8834 C   0  0  0  0  0  0  0  0  0  0  0  0
   55.6257    0.2714    0.0158 C   0  0  0  0  0  0  0  0  0  0  0  0
   54.8898    1.3525   -0.4803 C   0  0  0  0  0  0  0  0  0  0  0  0
   55.4898    2.4917   -1.1029 C   0  0  0  0  0  0  0  0  0  0  0  0
   54.4909    3.3747   -1.3351 C   0  0  0  0  0  0  0  0  0  0  0  0
   53.2821    2.7451   -0.8974 C   0  0  0  0  0  0  0  0  0  0  0  0
   53.5441    1.5145   -0.3554 N   0  0  0  0  0  0  0  0  0  0  0  0
   52.0258    3.2694   -1.1208 C   0  0  0  0  0  0  0  0  0  0  0  0
   50.8660    2.5540   -0.9032 C   0  0  0  0  0  0  0  0  0  0  0  0
   49.5723    2.9852   -1.3463 C   0  0  0  0  0  0  0  0  0  0  0  0
   48.7163    1.9745   -1.0769 C   0  0  0  0  0  0  0  0  0  0  0  0
   49.4831    0.9520   -0.4264 C   0  0  0  0  0  0  0  0  0  0  0  0
   50.7979    1.3121   -0.3375 N   0  0  0  0  0  0  0  0  0  0  0  0
   48.9265   -0.1810    0.1317 C   0  0  0  0  0  0  0  0  0  0  0  0
   49.6391   -1.0327    0.9513 C   0  0  0  0  0  0  0  0  0  0  0  0
   49.0348   -2.0709    1.7346 C   0  0  0  0  0  0  0  0  0  0  0  0
   50.0120   -2.5821    2.5160 C   0  0  0  0  0  0  0  0  0  0  0  0
   51.2175   -1.8874    2.1695 C   0  0  0  0  0  0  0  0  0  0  0  0
   50.9756   -0.9376    1.2177 N   0  0  0  0  0  0  0  0  0  0  0  0
   52.4616   -2.2234    2.6637 C   0  0  0  0  0  0  0  0  0  0  0  0
   53.6342   -1.7063    2.1530 C   0  0  0  0  0  0  0  0  0  0  0  0
   53.7210   -0.7406    1.1853 N   0  0  0  0  0  0  0  0  0  0  0  0
   55.1234   -2.9641    3.2236 H   0  0  0  0  0  0  0  0  0  0  0  0
   56.8761   -1.6849    1.6172 H   0  0  0  0  0  0  0  0  0  0  0  0
   56.5397    2.5969   -1.2913 H   0  0  0  0  0  0  0  0  0  0  0  0
   54.5450    4.3502   -1.7779 H   0  0  0  0  0  0  0  0  0  0  0  0
   51.9505    4.2489   -1.5681 H   0  0  0  0  0  0  0  0  0  0  0  0
   49.3746    3.9288   -1.8172 H   0  0  0  0  0  0  0  0  0  0  0  0
   47.6624    1.9145   -1.2687 H   0  0  0  0  0  0  0  0  0  0  0  0
   47.8707   -0.3586   -0.0048 H   0  0  0  0  0  0  0  0  0  0  0  0
   47.9967   -2.3382    1.6919 H   0  0  0  0  0  0  0  0  0  0  0  0
   49.9506   -3.3666    3.2453 H   0  0  0  0  0  0  0  0  0  0  0  0
   52.5252   -2.9896    3.4214 H   0  0  0  0  0  0  0  0  0  0  0  0
  115.3351   -0.2209    0.3633 Co  0  0  0  0  0  0  0  0  0  0  0  0
  112.6342    2.1815    2.4985 C   0  0  0  0  0  0  0  0  0  0  0  0
  111.7577    1.5335    1.6962 C   0  0  0  0  0  0  0  0  0  0  0  0
  112.5311    0.6396    0.8892 C   0  0  0  0  0  0  0  0  0  0  0  0
  111.9594   -0.3041    0.0289 C   0  0  0  0  0  0  0  0  0  0  0  0
  112.7152   -1.3561   -0.4970 C   0  0  0  0  0  0  0  0  0  0  0  0
  112.1365   -2.5019   -1.1276 C   0  0  0  0  0  0  0  0  0  0  0  0
  113.1548   -3.3537   -1.3892 C   0  0  0  0  0  0  0  0  0  0  0  0
  114.3533   -2.6970   -0.9630 C   0  0  0  0  0  0  0  0  0  0  0  0
  114.0674   -1.4815   -0.3999 N   0  0  0  0  0  0  0  0  0  0  0  0
  115.6195   -3.1829   -1.2162 C   0  0  0  0  0  0  0  0  0  0  0  0
  116.7618   -2.4350   -1.0164 C   0  0  0  0  0  0  0  0  0  0  0  0
  118.0574   -2.8225   -1.4932 C   0  0  0  0  0  0  0  0  0  0  0  0
  118.8876   -1.7872   -1.2367 C   0  0  0  0  0  0  0  0  0  0  0  0
  118.1052   -0.7940   -0.5598 C   0  0  0  0  0  0  0  0  0  0  0  0
  116.8049   -1.1960   -0.4421 N   0  0  0  0  0  0  0  0  0  0  0  0
  118.6400    0.3514   -0.0055 C   0  0  0  0  0  0  0  0  0  0  0  0
  117.9219    1.1727    0.8400 C   0  0  0  0  0  0  0  0  0  0  0  0
  118.5130    2.2215    1.6194 C   0  0  0  0  0  0  0  0  0  0  0  0
  117.5401    2.6937    2.4303 C   0  0  0  0  0  0  0  0  0  0  0  0
  116.3483    1.9656    2.1055 C   0  0  0  0  0  0  0  0  0  0  0  0
  116.5962    1.0332    1.1382 N   0  0  0  0  0  0  0  0  0  0  0  0
  115.1065    2.2593    2.6310 C   0  0  0  0  0  0  0  0  0  0  0  0
  113.9386    1.7137    2.1395 C   0  0  0  0  0  0  0  0  0  0  0  0
  113.8592    0.7543    1.1649 N   0  0  0  0  0  0  0  0  0  0  0  0
  112.4369    2.9213    3.2498 H   0  0  0  0  0  0  0  0  0  0  0  0
  110.6884    1.6095    1.6654 H   0  0  0  0  0  0  0  0  0  0  0  0
  111.0878   -2.6297   -1.3073 H   0  0  0  0  0  0  0  0  0  0  0  0
  113.1198   -4.3234   -1.8463 H   0  0  0  0  0  0  0  0  0  0  0  0
  115.7142   -4.1555   -1.6747 H   0  0  0  0  0  0  0  0  0  0  0  0
  118.2731   -3.7560   -1.9760 H   0  0  0  0  0  0  0  0  0  0  0  0
  119.9340   -1.6924   -1.4535 H   0  0  0  0  0  0  0  0  0  0  0  0
  119.6859    0.5633   -0.1667 H   0  0  0  0  0  0  0  0  0  0  0  0
  119.5409    2.5217    1.5544 H   0  0  0  0  0  0  0  0  0  0  0  0
  117.5951    3.4724    3.1663 H   0  0  0  0  0  0  0  0  0  0  0  0
  115.0372    3.0154    3.3982 H   0  0  0  0  0  0  0  0  0  0  0  0
   56.9858    0.1580   -0.2903 C   0  0  0  0  0  0  0  0  0  0  0  0
   58.1527    0.0076   -0.5894 C   0  0  0  0  0  0  0  0  0  0  0  0
   67.5016   -0.1669   -0.0711 C   0  0  0  0  0  0  0  0  0  0  0  0
   68.6355   -0.0259    0.3412 C   0  0  0  0  0  0  0  0  0  0  0  0
   77.9432    0.2332    0.2657 C   0  0  0  0  0  0  0  0  0  0  0  0
   79.0796    0.1478   -0.1552 C   0  0  0  0  0  0  0  0  0  0  0  0
   88.3974   -0.2143   -0.2093 C   0  0  0  0  0  0  0  0  0  0  0  0
   89.5405   -0.1973    0.2013 C   0  0  0  0  0  0  0  0  0  0  0  0
   98.8751    0.3610    0.3636 C   0  0  0  0  0  0  0  0  0  0  0  0
  100.0245    0.4365   -0.0214 C   0  0  0  0  0  0  0  0  0  0  0  0
  109.4098   -0.0996   -0.5009 C   0  0  0  0  0  0  0  0  0  0  0  0
  110.5884   -0.2263   -0.2404 C   0  0  0  0  0  0  0  0  0  0  0  0
   62.8680   -0.4432   -1.1697 Co  0  0  0  0  0  0  0  0  0  0  0  0
   60.2871   -3.5754   -0.1487 C   0  0  0  0  0  0  0  0  0  0  0  0
   59.3900   -2.5617   -0.1897 C   0  0  0  0  0  0  0  0  0  0  0  0
   60.1207   -1.3876   -0.5568 C   0  0  0  0  0  0  0  0  0  0  0  0
   59.5101   -0.1674   -0.8740 C   0  0  0  0  0  0  0  0  0  0  0  0
   60.2110    0.8249   -1.5699 C   0  0  0  0  0  0  0  0  0  0  0  0
   59.5782    1.9200   -2.2370 C   0  0  0  0  0  0  0  0  0  0  0  0
   60.5508    2.5713   -2.9176 C   0  0  0  0  0  0  0  0  0  0  0  0
   61.7780    1.9007   -2.6144 C   0  0  0  0  0  0  0  0  0  0  0  0
   61.5507    0.8190   -1.8056 N   0  0  0  0  0  0  0  0  0  0  0  0
   63.0230    2.3793   -2.9709 C   0  0  0  0  0  0  0  0  0  0  0  0
   64.1967    1.8773   -2.4461 C   0  0  0  0  0  0  0  0  0  0  0  0
   65.4673    2.5239   -2.5701 C   0  0  0  0  0  0  0  0  0  0  0  0
   66.3283    1.8371   -1.7819 C   0  0  0  0  0  0  0  0  0  0  0  0
   65.5888    0.7442   -1.2290 C   0  0  0  0  0  0  0  0  0  0  0  0
   64.2909    0.7787   -1.6334 N   0  0  0  0  0  0  0  0  0  0  0  0
   66.1800   -0.2972   -0.5019 C   0  0  0  0  0  0  0  0  0  0  0  0
   65.5029   -1.5081   -0.3063 C   0  0  0  0  0  0  0  0  0  0  0  0
   66.1513   -2.7213    0.0849 C   0  0  0  0  0  0  0  0  0  0  0  0
   65.2134   -3.6962    0.0243 C   0  0  0  0  0  0  0  0  0  0  0  0
   63.9878   -3.0591   -0.3499 C   0  0  0  0  0  0  0  0  0  0  0  0
   64.1871   -1.7219   -0.5728 N   0  0  0  0  0  0  0  0  0  0  0  0
   62.7591   -3.6872   -0.3350 C   0  0  0  0  0  0  0  0  0  0  0  0
   61.5654   -3.0008   -0.4375 C   0  0  0  0  0  0  0  0  0  0  0  0
   61.4453   -1.6623   -0.7007 N   0  0  0  0  0  0  0  0  0  0  0  0
   60.1198   -4.6109    0.0754 H   0  0  0  0  0  0  0  0  0  0  0  0
   58.3294   -2.5946   -0.0345 H   0  0  0  0  0  0  0  0  0  0  0  0
   58.5257    2.1212   -2.2096 H   0  0  0  0  0  0  0  0  0  0  0  0
   60.4666    3.4365   -3.5460 H   0  0  0  0  0  0  0  0  0  0  0  0
   63.0754    3.2514   -3.6051 H   0  0  0  0  0  0  0  0  0  0  0  0
   65.6527    3.3970   -3.1649 H   0  0  0  0  0  0  0  0  0  0  0  0
   67.3733    2.0107   -1.6148 H   0  0  0  0  0  0  0  0  0  0  0  0
   67.1929   -2.8028    0.3256 H   0  0  0  0  0  0  0  0  0  0  0  0
   65.3188   -4.7431    0.2327 H   0  0  0  0  0  0  0  0  0  0  0  0
   62.7262   -4.7466   -0.1300 H   0  0  0  0  0  0  0  0  0  0  0  0
   73.2897    0.3650    1.2579 Co  0  0  0  0  0  0  0  0  0  0  0  0
   70.9144   -2.8482    2.4850 C   0  0  0  0  0  0  0  0  0  0  0  0
   69.9726   -2.1164    1.8428 C   0  0  0  0  0  0  0  0  0  0  0  0
   70.6321   -0.9476    1.3493 C   0  0  0  0  0  0  0  0  0  0  0  0
   69.9630    0.1255    0.7450 C   0  0  0  0  0  0  0  0  0  0  0  0
   70.5758    1.3815    0.6409 C   0  0  0  0  0  0  0  0  0  0  0  0
   69.8544    2.5943    0.4061 C   0  0  0  0  0  0  0  0  0  0  0  0
   70.7391    3.6064    0.5739 C   0  0  0  0  0  0  0  0  0  0  0  0
   72.0051    2.9999    0.8510 C   0  0  0  0  0  0  0  0  0  0  0  0
   71.8852    1.6367    0.9043 N   0  0  0  0  0  0  0  0  0  0  0  0
   73.1967    3.6949    0.9175 C   0  0  0  0  0  0  0  0  0  0  0  0
   74.4278    3.0708    0.8920 C   0  0  0  0  0  0  0  0  0  0  0  0
   75.6653    3.7531    0.6653 C   0  0  0  0  0  0  0  0  0  0  0  0
   76.6057    2.7953    0.4836 C   0  0  0  0  0  0  0  0  0  0  0  0
   75.9459    1.5387    0.6589 C   0  0  0  0  0  0  0  0  0  0  0  0
   74.6222    1.7146    0.9117 N   0  0  0  0  0  0  0  0  0  0  0  0
   76.6149    0.3075    0.6873 C   0  0  0  0  0  0  0  0  0  0  0  0
   76.0028   -0.8254    1.2405 C   0  0  0  0  0  0  0  0  0  0  0  0
   76.7248   -1.9881    1.6571 C   0  0  0  0  0  0  0  0  0  0  0  0
   75.8410   -2.7723    2.3197 C   0  0  0  0  0  0  0  0  0  0  0  0
   74.5748   -2.1091    2.2500 C   0  0  0  0  0  0  0  0  0  0  0  0
   74.6940   -0.9098    1.5992 N   0  0  0  0  0  0  0  0  0  0  0  0
   73.3839   -2.6721    2.6643 C   0  0  0  0  0  0  0  0  0  0  0  0
   72.1521   -2.1473    2.3272 C   0  0  0  0  0  0  0  0  0  0  0  0
   71.9569   -0.9710    1.6525 N   0  0  0  0  0  0  0  0  0  0  0  0
   70.8032   -3.7842    2.9969 H   0  0  0  0  0  0  0  0  0  0  0  0
   68.9230   -2.3104    1.7418 H   0  0  0  0  0  0  0  0  0  0  0  0
   68.8050    2.6462    0.1914 H   0  0  0  0  0  0  0  0  0  0  0  0
   70.5720    4.6632    0.4969 H   0  0  0  0  0  0  0  0  0  0  0  0
   73.1659    4.7732    0.8751 H   0  0  0  0  0  0  0  0  0  0  0  0
   75.7771    4.8192    0.6269 H   0  0  0  0  0  0  0  0  0  0  0  0
   77.6546    2.9096    0.2934 H   0  0  0  0  0  0  0  0  0  0  0  0
   77.7739   -2.1423    1.4969 H   0  0  0  0  0  0  0  0  0  0  0  0
   76.0087   -3.7200    2.7933 H   0  0  0  0  0  0  0  0  0  0  0  0
   73.4153   -3.6212    3.1778 H   0  0  0  0  0  0  0  0  0  0  0  0
   83.7284   -0.1416   -1.1476 Co  0  0  0  0  0  0  0  0  0  0  0  0
   81.1450   -3.4251   -0.9457 C   0  0  0  0  0  0  0  0  0  0  0  0
   80.2730   -2.4421   -0.6165 C   0  0  0  0  0  0  0  0  0  0  0  0
   81.0063   -1.2149   -0.6695 C   0  0  0  0  0  0  0  0  0  0  0  0
   80.4064    0.0482   -0.5764 C   0  0  0  0  0  0  0  0  0  0  0  0
   81.0846    1.1951   -1.0110 C   0  0  0  0  0  0  0  0  0  0  0  0
   80.4347    2.4329   -1.3119 C   0  0  0  0  0  0  0  0  0  0  0  0
   81.3809    3.2471   -1.8375 C   0  0  0  0  0  0  0  0  0  0  0  0
   82.6121    2.5185   -1.7988 C   0  0  0  0  0  0  0  0  0  0  0  0
   82.4081    1.2528   -1.3151 N   0  0  0  0  0  0  0  0  0  0  0  0
   83.8470    3.0793   -2.0561 C   0  0  0  0  0  0  0  0  0  0  0  0
   85.0347    2.4474   -1.7443 C   0  0  0  0  0  0  0  0  0  0  0  0
   86.3067    3.1021   -1.7161 C   0  0  0  0  0  0  0  0  0  0  0  0
   87.1875    2.2130   -1.1979 C   0  0  0  0  0  0  0  0  0  0  0  0
   86.4569    1.0043   -0.9695 C   0  0  0  0  0  0  0  0  0  0  0  0
   85.1460    1.1579   -1.2968 N   0  0  0  0  0  0  0  0  0  0  0  0
   87.0625   -0.2097   -0.6181 C   0  0  0  0  0  0  0  0  0  0  0  0
   86.3786   -1.4223   -0.7789 C   0  0  0  0  0  0  0  0  0  0  0  0
   87.0240   -2.6978   -0.8129 C   0  0  0  0  0  0  0  0  0  0  0  0
   86.0683   -3.6054   -1.1250 C   0  0  0  0  0  0  0  0  0  0  0  0
   84.8370   -2.8825   -1.2223 C   0  0  0  0  0  0  0  0  0  0  0  0
   85.0488   -1.5421   -1.0343 N   0  0  0  0  0  0  0  0  0  0  0  0
   83.5982   -3.4832   -1.3262 C   0  0  0  0  0  0  0  0  0  0  0  0
   82.4155   -2.7957   -1.1388 C   0  0  0  0  0  0  0  0  0  0  0  0
   82.3107   -1.4393   -0.9806 N   0  0  0  0  0  0  0  0  0  0  0  0
   80.9663   -4.4794   -1.0306 H   0  0  0  0  0  0  0  0  0  0  0  0
   79.2249   -2.5157   -0.4018 H   0  0  0  0  0  0  0  0  0  0  0  0
   79.3877    2.6184   -1.1747 H   0  0  0  0  0  0  0  0  0  0  0  0
   81.2771    4.2527   -2.1962 H   0  0  0  0  0  0  0  0  0  0  0  0
   83.8846    4.0973   -2.4134 H   0  0  0  0  0  0  0  0  0  0  0  0
   86.4805    4.1128   -2.0307 H   0  0  0  0  0  0  0  0  0  0  0  0
   88.2392    2.3306   -1.0239 H   0  0  0  0  0  0  0  0  0  0  0  0
   88.0738   -2.8515   -0.6599 H   0  0  0  0  0  0  0  0  0  0  0  0
   86.1658   -4.6658   -1.2540 H   0  0  0  0  0  0  0  0  0  0  0  0
   83.5557   -4.5548   -1.4503 H   0  0  0  0  0  0  0  0  0  0  0  0
   94.1971   -0.0035    1.2137 Co  0  0  0  0  0  0  0  0  0  0  0  0
   91.9360   -3.5232    1.1650 C   0  0  0  0  0  0  0  0  0  0  0  0
   90.9664   -2.6402    0.8271 C   0  0  0  0  0  0  0  0  0  0  0  0
   91.5822   -1.3498    0.8007 C   0  0  0  0  0  0  0  0  0  0  0  0
   90.8718   -0.1558    0.6205 C   0  0  0  0  0  0  0  0  0  0  0  0
   91.4432    1.0763    0.9654 C   0  0  0  0  0  0  0  0  0  0  0  0
   90.6804    2.2707    1.1621 C   0  0  0  0  0  0  0  0  0  0  0  0
   91.5321    3.1902    1.6752 C   0  0  0  0  0  0  0  0  0  0  0  0
   92.8189    2.5667    1.7333 C   0  0  0  0  0  0  0  0  0  0  0  0
   92.7452    1.2666    1.3089 N   0  0  0  0  0  0  0  0  0  0  0  0
   93.9851    3.2343    2.0499 C   0  0  0  0  0  0  0  0  0  0  0  0
   95.2382    2.6980    1.8305 C   0  0  0  0  0  0  0  0  0  0  0  0
   96.4493    3.4588    1.8778 C   0  0  0  0  0  0  0  0  0  0  0  0
   97.4286    2.6532    1.4023 C   0  0  0  0  0  0  0  0  0  0  0  0
   96.8179    1.3908    1.1234 C   0  0  0  0  0  0  0  0  0  0  0  0
   95.4845    1.4249    1.3889 N   0  0  0  0  0  0  0  0  0  0  0  0
   97.5351    0.2499    0.7420 C   0  0  0  0  0  0  0  0  0  0  0  0
   96.9584   -1.0235    0.8374 C   0  0  0  0  0  0  0  0  0  0  0  0
   97.7193   -2.2352    0.8276 C   0  0  0  0  0  0  0  0  0  0  0  0
   96.8569   -3.2328    1.1365 C   0  0  0  0  0  0  0  0  0  0  0  0
   95.5674   -2.6285    1.2768 C   0  0  0  0  0  0  0  0  0  0  0  0
   95.6484   -1.2721    1.1057 N   0  0  0  0  0  0  0  0  0  0  0  0
   94.3953   -3.3413    1.4324 C   0  0  0  0  0  0  0  0  0  0  0  0
   93.1470   -2.7705    1.2871 C   0  0  0  0  0  0  0  0  0  0  0  0
   92.9088   -1.4365    1.0851 N   0  0  0  0  0  0  0  0  0  0  0  0
   91.8607   -4.5850    1.2972 H   0  0  0  0  0  0  0  0  0  0  0  0
   89.9243   -2.8193    0.6508 H   0  0  0  0  0  0  0  0  0  0  0  0
   89.6287    2.3593    0.9711 H   0  0  0  0  0  0  0  0  0  0  0  0
   91.3302    4.2020    1.9684 H   0  0  0  0  0  0  0  0  0  0  0  0
   93.9161    4.2591    2.3821 H   0  0  0  0  0  0  0  0  0  0  0  0
   96.5184    4.4774    2.2069 H   0  0  0  0  0  0  0  0  0  0  0  0
   98.4731    2.8621    1.2825 H   0  0  0  0  0  0  0  0  0  0  0  0
   98.7759   -2.2890    0.6519 H   0  0  0  0  0  0  0  0  0  0  0  0
   97.0541   -4.2820    1.2403 H   0  0  0  0  0  0  0  0  0  0  0  0
   94.4585   -4.4105    1.5678 H   0  0  0  0  0  0  0  0  0  0  0  0
  104.6895    0.4311   -1.0594 Co  0  0  0  0  0  0  0  0  0  0  0  0
  101.9852   -2.5640   -2.1875 C   0  0  0  0  0  0  0  0  0  0  0  0
  101.1420   -1.7642   -1.4929 C   0  0  0  0  0  0  0  0  0  0  0  0
  101.9190   -0.6507   -1.0411 C   0  0  0  0  0  0  0  0  0  0  0  0
  101.3604    0.4783   -0.4288 C   0  0  0  0  0  0  0  0  0  0  0  0
  102.0858    1.6709   -0.3229 C   0  0  0  0  0  0  0  0  0  0  0  0
  101.4854    2.9356   -0.0312 C   0  0  0  0  0  0  0  0  0  0  0  0
  102.4633    3.8638   -0.1535 C   0  0  0  0  0  0  0  0  0  0  0  0
  103.6639    3.1504   -0.4659 C   0  0  0  0  0  0  0  0  0  0  0  0
  103.4126    1.8091   -0.5877 N   0  0  0  0  0  0  0  0  0  0  0  0
  104.9150    3.7315   -0.4943 C   0  0  0  0  0  0  0  0  0  0  0  0
  106.0829    2.9974   -0.5418 C   0  0  0  0  0  0  0  0  0  0  0  0
  107.3808    3.5526   -0.3074 C   0  0  0  0  0  0  0  0  0  0  0  0
  108.2459    2.5115   -0.2755 C   0  0  0  0  0  0  0  0  0  0  0  0
  107.4750    1.3354   -0.5416 C   0  0  0  0  0  0  0  0  0  0  0  0
  106.1575    1.6386   -0.6965 N   0  0  0  0  0  0  0  0  0  0  0  0
  108.0461    0.0757   -0.7590 C   0  0  0  0  0  0  0  0  0  0  0  0
  107.3051   -0.9613   -1.3357 C   0  0  0  0  0  0  0  0  0  0  0  0
  107.8952   -2.1477   -1.8734 C   0  0  0  0  0  0  0  0  0  0  0  0
  106.8971   -2.8375   -2.4736 C   0  0  0  0  0  0  0  0  0  0  0  0
  105.6964   -2.0921   -2.2488 C   0  0  0  0  0  0  0  0  0  0  0  0
  105.9640   -0.9359   -1.5652 N   0  0  0  0  0  0  0  0  0  0  0  0
  104.4358   -2.5596   -2.5612 C   0  0  0  0  0  0  0  0  0  0  0  0
  103.2794   -1.9586   -2.1080 C   0  0  0  0  0  0  0  0  0  0  0  0
  103.2205   -0.7781   -1.4156 N   0  0  0  0  0  0  0  0  0  0  0  0
  101.7732   -3.4870   -2.6912 H   0  0  0  0  0  0  0  0  0  0  0  0
  100.0884   -1.8773   -1.3285 H   0  0  0  0  0  0  0  0  0  0  0  0
  100.4473    3.0765    0.1953 H   0  0  0  0  0  0  0  0  0  0  0  0
  102.4009    4.9269   -0.0246 H   0  0  0  0  0  0  0  0  0  0  0  0
  104.9867    4.8019   -0.3743 H   0  0  0  0  0  0  0  0  0  0  0  0
  107.5816    4.5968   -0.1670 H   0  0  0  0  0  0  0  0  0  0  0  0
  109.3081    2.5226   -0.1287 H   0  0  0  0  0  0  0  0  0  0  0  0
  108.9385   -2.3858   -1.8158 H   0  0  0  0  0  0  0  0  0  0  0  0
  106.9469   -3.7716   -2.9984 H   0  0  0  0  0  0  0  0  0  0  0  0
  104.3530   -3.4921   -3.0987 H   0  0  0  0  0  0  0  0  0  0  0  0
  2  3  2  0  0  0  0
  3  4  1  0  0  0  0
  4  5  4  0  0  0  0
  5  6  4  0  0  0  0
  6  7  1  0  0  0  0
  7  8  2  0  0  0  0
  8  9  1  0  0  0  0
  1 10  1  0  0  0  0
  6 10  4  0  0  0  0
  9 10  4  0  0  0  0
  9 11  4  0  0  0  0
 11 12  4  0  0  0  0
 12 13  1  0  0  0  0
 13 14  2  0  0  0  0
 14 15  1  0  0  0  0
  1 16  1  0  0  0  0
 12 16  4  0  0  0  0
 15 16  4  0  0  0  0
 15 17  4  0  0  0  0
 17 18  4  0  0  0  0
 18 19  1  0  0  0  0
 19 20  2  0  0  0  0
 20 21  1  0  0  0  0
  1 22  1  0  0  0  0
 18 22  4  0  0  0  0
 21 22  4  0  0  0  0
 21 23  4  0  0  0  0
  2 24  1  0  0  0  0
 23 24  4  0  0  0  0
  1 25  1  0  0  0  0
  4 25  4  0  0  0  0
 24 25  4  0  0  0  0
  2 26  1  0  0  0  0
  3 27  1  0  0  0  0
  7 28  1  0  0  0  0
  8 29  1  0  0  0  0
 11 30  1  0  0  0  0
 13 31  1  0  0  0  0
 14 32  1  0  0  0  0
 17 33  1  0  0  0  0
 19 34  1  0  0  0  0
 20 35  1  0  0  0  0
 23 36  1  0  0  0  0
 38 39  2  0  0  0  0
 39 40  1  0  0  0  0
 40 41  4  0  0  0  0
 41 42  4  0  0  0  0
 42 43  1  0  0  0  0
 43 44  2  0  0  0  0
 44 45  1  0  0  0  0
 37 46  1  0  0  0  0
 42 46  4  0  0  0  0
 45 46  4  0  0  0  0
 45 47  4  0  0  0  0
 47 48  4  0  0  0  0
 48 49  1  0  0  0  0
 49 50  2  0  0  0  0
 50 51  1  0  0  0  0
 37 52  1  0  0  0  0
 48 52  4  0  0  0  0
 51 52  4  0  0  0  0
 51 53  4  0  0  0  0
 53 54  4  0  0  0  0
 54 55  1  0  0  0  0
 55 56  2  0  0  0  0
 56 57  1  0  0  0  0
 37 58  1  0  0  0  0
 54 58  4  0  0  0  0
 57 58  4  0  0  0  0
 57 59  4  0  0  0  0
 38 60  1  0  0  0  0
 59 60  4  0  0  0  0
 37 61  1  0  0  0  0
 40 61  4  0  0  0  0
 60 61  4  0  0  0  0
 38 62  1  0  0  0  0
 39 63  1  0  0  0  0
 43 64  1  0  0  0  0
 44 65  1  0  0  0  0
 47 66  1  0  0  0  0
 49 67  1  0  0  0  0
 50 68  1  0  0  0  0
 53 69  1  0  0  0  0
 55 70  1  0  0  0  0
 56 71  1  0  0  0  0
 59 72  1  0  0  0  0
  5 73  1  0  0  0  0
 73 74  3  0  0  0  0
 75 76  3  0  0  0  0
 77 78  3  0  0  0  0
 79 80  3  0  0  0  0
 81 82  3  0  0  0  0
 41 84  1  0  0  0  0
 83 84  3  0  0  0  0
 86 87  2  0  0  0  0
 87 88  1  0  0  0  0
 74 89  1  0  0  0  0
 88 89  4  0  0  0  0
 89 90  4  0  0  0  0
 90 91  1  0  0  0  0
 91 92  2  0  0  0  0
 92 93  1  0  0  0  0
 85 94  1  0  0  0  0
 90 94  4  0  0  0  0
 93 94  4  0  0  0  0
 93 95  4  0  0  0  0
 95 96  4  0  0  0  0
 96 97  1  0  0  0  0
 97 98  2  0  0  0  0
 98 99  1  0  0  0  0
 85100  1  0  0  0  0
 96100  4  0  0  0  0
 99100  4  0  0  0  0
 75101  1  0  0  0  0
 99101  4  0  0  0  0
101102  4  0  0  0  0
102103  1  0  0  0  0
103104  2  0  0  0  0
104105  1  0  0  0  0
 85106  1  0  0  0  0
102106  4  0  0  0  0
105106  4  0  0  0  0
105107  4  0  0  0  0
 86108  1  0  0  0  0
107108  4  0  0  0  0
 85109  1  0  0  0  0
 88109  4  0  0  0  0
108109  4  0  0  0  0
 86110  1  0  0  0  0
 87111  1  0  0  0  0
 91112  1  0  0  0  0
 92113  1  0  0  0  0
 95114  1  0  0  0  0
 97115  1  0  0  0  0
 98116  1  0  0  0  0
103117  1  0  0  0  0
104118  1  0  0  0  0
107119  1  0  0  0  0
121122  2  0  0  0  0
122123  1  0  0  0  0
 76124  1  0  0  0  0
123124  4  0  0  0  0
124125  4  0  0  0  0
125126  1  0  0  0  0
126127  2  0  0  0  0
127128  1  0  0  0  0
120129  1  0  0  0  0
125129  4  0  0  0  0
128129  4  0  0  0  0
128130  4  0  0  0  0
130131  4  0  0  0  0
131132  1  0  0  0  0
132133  2  0  0  0  0
133134  1  0  0  0  0
120135  1  0  0  0  0
131135  4  0  0  0  0
134135  4  0  0  0  0
 77136  1  0  0  0  0
134136  4  0  0  0  0
136137  4  0  0  0  0
137138  1  0  0  0  0
138139  2  0  0  0  0
139140  1  0  0  0  0
120141  1  0  0  0  0
137141  4  0  0  0  0
140141  4  0  0  0  0
140142  4  0  0  0  0
121143  1  0  0  0  0
142143  4  0  0  0  0
120144  1  0  0  0  0
123144  4  0  0  0  0
143144  4  0  0  0  0
121145  1  0  0  0  0
122146  1  0  0  0  0
126147  1  0  0  0  0
127148  1  0  0  0  0
130149  1  0  0  0  0
132150  1  0  0  0  0
133151  1  0  0  0  0
138152  1  0  0  0  0
139153  1  0  0  0  0
142154  1  0  0  0  0
156157  2  0  0  0  0
157158  1  0  0  0  0
 78159  1  0  0  0  0
158159  4  0  0  0  0
159160  4  0  0  0  0
160161  1  0  0  0  0
161162  2  0  0  0  0
162163  1  0  0  0  0
155164  1  0  0  0  0
160164  4  0  0  0  0
163164  4  0  0  0  0
163165  4  0  0  0  0
165166  4  0  0  0  0
166167  1  0  0  0  0
167168  2  0  0  0  0
168169  1  0  0  0  0
155170  1  0  0  0  0
166170  4  0  0  0  0
169170  4  0  0  0  0
 79171  1  0  0  0  0
169171  4  0  0  0  0
171172  4  0  0  0  0
172173  1  0  0  0  0
173174  2  0  0  0  0
174175  1  0  0  0  0
155176  1  0  0  0  0
172176  4  0  0  0  0
175176  4  0  0  0  0
175177  4  0  0  0  0
156178  1  0  0  0  0
177178  4  0  0  0  0
155179  1  0  0  0  0
158179  4  0  0  0  0
178179  4  0  0  0  0
156180  1  0  0  0  0
157181  1  0  0  0  0
161182  1  0  0  0  0
162183  1  0  0  0  0
165184  1  0  0  0  0
167185  1  0  0  0  0
168186  1  0  0  0  0
173187  1  0  0  0  0
174188  1  0  0  0  0
177189  1  0  0  0  0
191192  2  0  0  0  0
192193  1  0  0  0  0
 80194  1  0  0  0  0
193194  4  0  0  0  0
194195  4  0  0  0  0
195196  1  0  0  0  0
196197  2  0  0  0  0
197198  1  0  0  0  0
190199  1  0  0  0  0
195199  4  0  0  0  0
198199  4  0  0  0  0
198200  4  0  0  0  0
200201  4  0  0  0  0
201202  1  0  0  0  0
202203  2  0  0  0  0
203204  1  0  0  0  0
190205  1  0  0  0  0
201205  4  0  0  0  0
204205  4  0  0  0  0
 81206  1  0  0  0  0
204206  4  0  0  0  0
206207  4  0  0  0  0
207208  1  0  0  0  0
208209  2  0  0  0  0
209210  1  0  0  0  0
190211  1  0  0  0  0
207211  4  0  0  0  0
210211  4  0  0  0  0
210212  4  0  0  0  0
191213  1  0  0  0  0
212213  4  0  0  0  0
190214  1  0  0  0  0
193214  4  0  0  0  0
213214  4  0  0  0  0
191215  1  0  0  0  0
192216  1  0  0  0  0
196217  1  0  0  0  0
197218  1  0  0  0  0
200219  1  0  0  0  0
202220  1  0  0  0  0
203221  1  0  0  0  0
208222  1  0  0  0  0
209223  1  0  0  0  0
212224  1  0  0  0  0
226227  2  0  0  0  0
227228  1  0  0  0  0
 82229  1  0  0  0  0
228229  4  0  0  0  0
229230  4  0  0  0  0
230231  1  0  0  0  0
231232  2  0  0  0  0
232233  1  0  0  0  0
225234  1  0  0  0  0
230234  4  0  0  0  0
233234  4  0  0  0  0
233235  4  0  0  0  0
235236  4  0  0  0  0
236237  1  0  0  0  0
237238  2  0  0  0  0
238239  1  0  0  0  0
225240  1  0  0  0  0
236240  4  0  0  0  0
239240  4  0  0  0  0
 83241  1  0  0  0  0
239241  4  0  0  0  0
241242  4  0  0  0  0
242243  1  0  0  0  0
243244  2  0  0  0  0
244245  1  0  0  0  0
225246  1  0  0  0  0
242246  4  0  0  0  0
245246  4  0  0  0  0
245247  4  0  0  0  0
226248  1  0  0  0  0
247248  4  0  0  0  0
225249  1  0  0  0  0
228249  4  0  0  0  0
248249  4  0  0  0  0
226250  1  0  0  0  0
227251  1  0  0  0  0
231252  1  0  0  0  0
232253  1  0  0  0  0
235254  1  0  0  0  0
237255  1  0  0  0  0
238256  1  0  0  0  0
243257  1  0  0  0  0
244258  1  0  0  0  0
247259  1  0  0  0  0
M  END
