342

C 78.125976 3.513576 0.790175
C 79.015953 2.573317 0.591980
C 78.354452 1.313242 0.291173
C 78.712890 0.007580 0.002491
C 77.887712 -1.123492 -0.082725
C 78.343277 -2.332216 0.498582
C 77.370583 -3.264763 0.298427
C 76.339489 -2.597062 -0.404560
N 76.676214 -1.316202 -0.621475
C 75.181528 -3.323177 -0.736278
C 73.863428 -2.880481 -0.622743
C 72.551081 -3.482616 -0.719722
C 71.629453 -2.535968 -0.513637
C 72.326339 -1.290138 -0.276906
N 73.647413 -1.569890 -0.356592
C 71.927097 0.011860 -0.008903
C 72.759709 1.148536 0.067006
C 72.325566 2.350525 -0.543135
C 73.321079 3.266914 -0.351179
C 74.335230 2.593671 0.372752
N 73.970033 1.325849 0.611576
C 75.504872 3.300627 0.694252
C 76.820125 2.897102 0.624236
N 77.009748 1.585999 0.327834
H 78.293240 4.542120 1.028765
H 80.086212 2.696654 0.640998
H 79.303799 -2.517919 1.017159
H 77.407465 -4.321372 0.623754
H 76.072929 -0.548792 -1.168994
H 75.269919 -4.358604 -1.114624
H 72.352406 -4.543316 -0.928467
H 70.560044 -2.727902 -0.532870
H 70.852154 0.101129 0.128842
H 71.371912 2.542083 -1.071932
H 73.306658 4.317143 -0.697620
H 74.563358 0.568405 1.183573
H 75.436364 4.358032 1.050968
C 156.583614 -3.490047 0.826545
C 155.693636 -2.551896 0.618595
C 156.355137 -1.295014 0.304717
C 155.996699 0.007580 0.002491
C 156.821878 1.137706 -0.094468
C 156.366312 2.352402 0.474255
C 157.339007 3.282819 0.264425
C 158.370100 2.607853 -0.431590
N 158.033375 1.324810 -0.635190
C 159.528061 3.330485 -0.770830
C 160.846162 2.888992 -0.652704
C 162.158508 3.490086 -0.755932
C 163.080136 2.545630 -0.540026
C 162.383250 1.302325 -0.290369
N 161.062177 1.581235 -0.372956
C 162.782492 0.003182 -0.008858
C 161.949880 -1.132645 0.078852
C 162.384023 -2.340906 -0.518772
C 161.388510 -3.255252 -0.317309
C 160.374359 -2.574526 0.399591
N 160.739556 -1.304292 0.625235
C 159.204718 -3.278105 0.728415
C 157.889464 -2.875330 0.654213
N 157.699842 -1.567375 0.344210
H 156.416349 -4.516057 1.075804
H 154.623377 -2.674718 0.668892
H 155.405791 2.543480 0.990875
H 157.302125 4.342751 0.578761
H 158.636660 0.551755 -1.174709
H 159.439670 4.361926 -1.159911
H 162.357184 4.548562 -0.975681
H 164.149546 2.737354 -0.561252
H 163.857435 -0.084652 0.129807
H 163.337678 -2.537945 -1.045551
H 161.402932 -4.309022 -0.652824
H 160.146231 -0.540949 1.189334
H 159.273226 -4.331748 1.096094
C 80.940334 0.007580 0.002491
C 82.156540 0.007580 0.002491
C 91.170722 0.007580 0.002491
C 92.386928 0.007580 0.002491
C 101.401110 0.007580 0.002491
C 102.617316 0.007580 0.002491
C 111.631498 0.007580 0.002491
C 112.847703 0.007580 0.002491
C 121.861886 0.007580 0.002491
C 123.078091 0.007580 0.002491
C 132.092274 0.007580 0.002491
C 133.308479 0.007580 0.002491
C 142.322662 0.007580 0.002491
C 143.538867 0.007580 0.002491
C 152.553050 0.007580 0.002491
C 153.769255 0.007580 0.002491
C 83.871688 -3.591980 0.001001
C 82.997138 -2.597076 -0.009301
C 83.668601 -1.318292 0.003889
C 83.271571 -0.002707 -0.000890
C 84.082763 1.141616 -0.155016
C 83.603737 2.194133 -0.967081
C 84.590822 3.136885 -0.958550
C 85.638094 2.635091 -0.145747
N 85.299241 1.428723 0.326999
C 86.798471 3.413074 0.008603
C 88.119460 2.955200 -0.020791
C 89.432030 3.583333 -0.081918
C 90.346142 2.628269 -0.084502
C 89.672596 1.341396 -0.025312
N 88.360537 1.629995 0.009477
C 90.074879 -0.002707 -0.000890
C 89.242725 -1.116496 0.181391
C 89.682683 -2.148153 1.044702
C 88.684501 -3.071494 1.049323
C 87.661585 -2.591556 0.195894
N 88.028763 -1.410309 -0.314614
C 86.504676 -3.366964 0.038825
C 85.183901 -2.947485 0.022140
N 85.007510 -1.609282 0.023041
H 83.703168 -4.654147 -0.004401
H 81.909310 -2.783111 -0.026327
H 82.639659 2.269504 -1.501398
H 84.552676 4.108000 -1.490993
H 85.906919 0.791624 1.015628
H 86.743371 4.499335 0.152718
H 89.650457 4.651326 -0.120249
H 91.422457 2.774313 -0.124129
H 90.636693 -2.212565 1.602250
H 88.709920 -4.016811 1.624643
H 87.441686 -0.790852 -1.038264
H 86.565394 -4.478703 -0.075304
C 94.102076 -3.591980 0.001001
C 93.227526 -2.597076 -0.009301
C 93.898989 -1.318292 0.003889
C 93.501958 -0.002707 -0.000890
C 94.313151 1.141616 -0.155016
C 93.834125 2.194133 -0.967081
C 94.821210 3.136885 -0.958550
C 95.868481 2.635091 -0.145747
N 95.529629 1.428723 0.326999
C 97.028859 3.413074 0.008603
C 98.349848 2.955200 -0.020791
C 99.662418 3.583333 -0.081918
C 100.576530 2.628269 -0.084502
C 99.902983 1.341396 -0.025312
N 98.590925 1.629995 0.009477
C 100.305267 -0.002707 -0.000890
C 99.473113 -1.116496 0.181391
C 99.913071 -2.148153 1.044702
C 98.914889 -3.071494 1.049323
C 97.891973 -2.591556 0.195894
N 98.259151 -1.410309 -0.314614
C 96.735064 -3.366964 0.038825
C 95.414289 -2.947485 0.022140
N 95.237898 -1.609282 0.023041
H 93.933556 -4.654147 -0.004401
H 92.139698 -2.783111 -0.026327
H 92.870047 2.269504 -1.501398
H 94.783064 4.108000 -1.490993
H 96.137307 0.791624 1.015628
H 96.973759 4.499335 0.152718
H 99.880845 4.651326 -0.120249
H 101.652845 2.774313 -0.124129
H 100.867081 -2.212565 1.602250
H 98.940308 -4.016811 1.624643
H 97.672074 -0.790852 -1.038264
H 96.795782 -4.478703 -0.075304
C 104.332464 -3.591980 0.001001
C 103.457914 -2.597076 -0.009301
C 104.129377 -1.318292 0.003889
C 103.732346 -0.002707 -0.000890
C 104.543539 1.141616 -0.155016
C 104.064513 2.194133 -0.967081
C 105.051598 3.136885 -0.958550
C 106.098869 2.635091 -0.145747
N 105.760016 1.428723 0.326999
C 107.259247 3.413074 0.008603
C 108.580236 2.955200 -0.020791
C 109.892806 3.583333 -0.081918
C 110.806918 2.628269 -0.084502
C 110.133371 1.341396 -0.025312
N 108.821313 1.629995 0.009477
C 110.535655 -0.002707 -0.000890
C 109.703501 -1.116496 0.181391
C 110.143459 -2.148153 1.044702
C 109.145277 -3.071494 1.049323
C 108.122361 -2.591556 0.195894
N 108.489538 -1.410309 -0.314614
C 106.965452 -3.366964 0.038825
C 105.644677 -2.947485 0.022140
N 105.468286 -1.609282 0.023041
H 104.163944 -4.654147 -0.004401
H 102.370086 -2.783111 -0.026327
H 103.100435 2.269504 -1.501398
H 105.013451 4.108000 -1.490993
H 106.367695 0.791624 1.015628
H 107.204147 4.499335 0.152718
H 110.111232 4.651326 -0.120249
H 111.883233 2.774313 -0.124129
H 111.097469 -2.212565 1.602250
H 109.170696 -4.016811 1.624643
H 107.902462 -0.790852 -1.038264
H 107.026170 -4.478703 -0.075304
C 114.562851 -3.591980 0.001001
C 113.688301 -2.597076 -0.009301
C 114.359765 -1.318292 0.003889
C 113.962734 -0.002707 -0.000890
C 114.773927 1.141616 -0.155016
C 114.294901 2.194133 -0.967081
C 115.281986 3.136885 -0.958550
C 116.329257 2.635091 -0.145747
N 115.990404 1.428723 0.326999
C 117.489635 3.413074 0.008603
C 118.810624 2.955200 -0.020791
C 120.123193 3.583333 -0.081918
C 121.037306 2.628269 -0.084502
C 120.363759 1.341396 -0.025312
N 119.051701 1.629995 0.009477
C 120.766043 -0.002707 -0.000890
C 119.933889 -1.116496 0.181391
C 120.373847 -2.148153 1.044702
C 119.375665 -3.071494 1.049323
C 118.352749 -2.591556 0.195894
N 118.719926 -1.410309 -0.314614
C 117.195840 -3.366964 0.038825
C 115.875065 -2.947485 0.022140
N 115.698674 -1.609282 0.023041
H 114.394332 -4.654147 -0.004401
H 112.600473 -2.783111 -0.026327
H 113.330823 2.269504 -1.501398
H 115.243839 4.108000 -1.490993
H 116.598083 0.791624 1.015628
H 117.434535 4.499335 0.152718
H 120.341620 4.651326 -0.120249
H 122.113621 2.774313 -0.124129
H 121.327857 -2.212565 1.602250
H 119.401083 -4.016811 1.624643
H 118.132850 -0.790852 -1.038264
H 117.256558 -4.478703 -0.075304
C 124.793239 -3.591980 0.001001
C 123.918689 -2.597076 -0.009301
C 124.590153 -1.318292 0.003889
C 124.193122 -0.002707 -0.000890
C 125.004314 1.141616 -0.155016
C 124.525289 2.194133 -0.967081
C 125.512374 3.136885 -0.958550
C 126.559645 2.635091 -0.145747
N 126.220792 1.428723 0.326999
C 127.720023 3.413074 0.008603
C 129.041012 2.955200 -0.020791
C 130.353581 3.583333 -0.081918
C 131.267694 2.628269 -0.084502
C 130.594147 1.341396 -0.025312
N 129.282089 1.629995 0.009477
C 130.996431 -0.002707 -0.000890
C 130.164277 -1.116496 0.181391
C 130.604235 -2.148153 1.044702
C 129.606053 -3.071494 1.049323
C 128.583137 -2.591556 0.195894
N 128.950314 -1.410309 -0.314614
C 127.426228 -3.366964 0.038825
C 126.105453 -2.947485 0.022140
N 125.929062 -1.609282 0.023041
H 124.624720 -4.654147 -0.004401
H 122.830861 -2.783111 -0.026327
H 123.561211 2.269504 -1.501398
H 125.474227 4.108000 -1.490993
H 126.828471 0.791624 1.015628
H 127.664923 4.499335 0.152718
H 130.572008 4.651326 -0.120249
H 132.344009 2.774313 -0.124129
H 131.558244 -2.212565 1.602250
H 129.631471 -4.016811 1.624643
H 128.363238 -0.790852 -1.038264
H 127.486946 -4.478703 -0.075304
C 135.023627 -3.591980 0.001001
C 134.149077 -2.597076 -0.009301
C 134.820541 -1.318292 0.003889
C 134.423510 -0.002707 -0.000890
C 135.234702 1.141616 -0.155016
C 134.755677 2.194133 -0.967081
C 135.742762 3.136885 -0.958550
C 136.790033 2.635091 -0.145747
N 136.451180 1.428723 0.326999
C 137.950411 3.413074 0.008603
C 139.271400 2.955200 -0.020791
C 140.583969 3.583333 -0.081918
C 141.498082 2.628269 -0.084502
C 140.824535 1.341396 -0.025312
N 139.512477 1.629995 0.009477
C 141.226819 -0.002707 -0.000890
C 140.394664 -1.116496 0.181391
C 140.834623 -2.148153 1.044702
C 139.836441 -3.071494 1.049323
C 138.813525 -2.591556 0.195894
N 139.180702 -1.410309 -0.314614
C 137.656616 -3.366964 0.038825
C 136.335841 -2.947485 0.022140
N 136.159450 -1.609282 0.023041
H 134.855108 -4.654147 -0.004401
H 133.061249 -2.783111 -0.026327
H 133.791599 2.269504 -1.501398
H 135.704615 4.108000 -1.490993
H 137.058859 0.791624 1.015628
H 137.895311 4.499335 0.152718
H 140.802396 4.651326 -0.120249
H 142.574397 2.774313 -0.124129
H 141.788632 -2.212565 1.602250
H 139.861859 -4.016811 1.624643
H 138.593626 -0.790852 -1.038264
H 137.717334 -4.478703 -0.075304
C 145.254015 -3.591980 0.001001
C 144.379465 -2.597076 -0.009301
C 145.050929 -1.318292 0.003889
C 144.653898 -0.002707 -0.000890
C 145.465090 1.141616 -0.155016
C 144.986065 2.194133 -0.967081
C 145.973150 3.136885 -0.958550
C 147.020421 2.635091 -0.145747
N 146.681568 1.428723 0.326999
C 148.180798 3.413074 0.008603
C 149.501788 2.955200 -0.020791
C 150.814357 3.583333 -0.081918
C 151.728470 2.628269 -0.084502
C 151.054923 1.341396 -0.025312
N 149.742865 1.629995 0.009477
C 151.457206 -0.002707 -0.000890
C 150.625052 -1.116496 0.181391
C 151.065011 -2.148153 1.044702
C 150.066829 -3.071494 1.049323
C 149.043913 -2.591556 0.195894
N 149.411090 -1.410309 -0.314614
C 147.887004 -3.366964 0.038825
C 146.566228 -2.947485 0.022140
N 146.389838 -1.609282 0.023041
H 145.085496 -4.654147 -0.004401
H 143.291637 -2.783111 -0.026327
H 144.021987 2.269504 -1.501398
H 145.935003 4.108000 -1.490993
H 147.289246 0.791624 1.015628
H 148.125699 4.499335 0.152718
H 151.032784 4.651326 -0.120249
H 152.804785 2.774313 -0.124129
H 152.019020 -2.212565 1.602250
H 150.092247 -4.016811 1.624643
H 148.824014 -0.790852 -1.038264
H 147.947722 -4.478703 -0.075304
