111

Zn 17.032593 0.000139 -0.001429
C 19.523881 -3.098686 1.548614
C 20.488260 -2.243235 1.131751
C 19.815425 -1.120269 0.543428
C 20.468440 -0.011932 -0.017439
C 19.817158 1.101665 -0.569989
C 20.491803 2.222603 -1.160315
C 19.529469 3.087703 -1.561472
C 18.269081 2.490021 -1.222678
N 18.475548 1.282564 -0.626125
C 17.035865 3.067488 -1.475383
C 15.801402 2.509657 -1.188217
C 14.536246 3.131190 -1.472047
C 13.577790 2.269497 -1.059350
C 14.256670 1.121053 -0.521865
N 15.600952 1.295635 -0.611433
C 13.623547 0.006521 0.003741
C 14.254749 -1.108421 0.530687
C 13.573272 -2.251507 1.076118
C 14.529741 -3.113564 1.492590
C 15.796403 -2.498453 1.201349
N 15.598712 -1.287125 0.617990
C 17.029340 -3.061330 1.485360
C 18.264397 -2.493811 1.219467
N 18.473320 -1.291127 0.614296
H 19.639843 -4.047459 2.036194
H 21.552702 -2.341438 1.220083
H 21.555836 2.313113 -1.260677
H 19.647189 4.038529 -2.044624
H 17.038594 4.040934 -1.945914
H 14.416899 4.096148 -1.926302
H 12.511703 2.383135 -1.106516
H 12.542538 0.007579 0.004254
H 12.506901 -2.361230 1.126269
H 14.408307 -4.074938 1.953801
H 17.028894 -4.031713 1.962234
Zn 38.820185 0.043835 0.001612
C 36.318608 3.064648 1.682073
C 35.357028 2.223611 1.230930
C 36.033316 1.128430 0.596020
C 35.383666 0.042151 -0.010206
C 36.038875 -1.044928 -0.609202
C 35.368198 -2.142742 -1.245557
C 36.333572 -2.986325 -1.683557
C 37.591836 -2.398154 -1.321228
N 37.381115 -1.217782 -0.674110
C 38.827186 -2.958962 -1.599734
C 40.059702 -2.408033 -1.291754
C 41.326963 -3.010912 -1.604714
C 42.282473 -2.162832 -1.158268
C 41.599666 -1.041448 -0.571096
N 40.255991 -1.218494 -0.664608
C 42.229244 0.052910 -0.000728
C 41.594384 1.142171 0.573419
C 42.271908 2.265261 1.163514
C 41.312472 3.104803 1.617540
C 40.047985 2.496014 1.304445
N 40.249861 1.310650 0.671293
C 38.812976 3.040380 1.614226
C 37.579994 2.478683 1.326977
N 37.374953 1.301278 0.672811
H 36.199693 3.992057 2.208474
H 34.292319 2.314051 1.324040
H 34.304476 -2.233266 -1.348754
H 36.219239 -3.916361 -2.206346
H 38.827954 -3.911782 -2.110764
H 41.449558 -3.955093 -2.099941
H 43.348935 -2.269166 -1.213108
H 43.310244 0.056607 -0.002754
H 43.337873 2.378123 1.215249
H 41.430686 4.047154 2.117280
H 38.809664 3.990093 2.131020
C 21.871970 -0.015182 -0.023031
C 23.084861 -0.017016 -0.024560
C 32.767198 0.037885 -0.021121
C 33.980103 0.040931 -0.015904
Zn 27.925742 0.010107 -0.029149
C 25.452947 -3.462492 -0.186237
C 24.483207 -2.516376 -0.164306
C 25.148613 -1.247520 -0.084536
C 24.488004 -0.010665 -0.026625
C 25.134434 1.233831 0.030946
C 24.454146 2.494428 0.115437
C 25.412406 3.452126 0.135874
C 26.675052 2.773780 0.070971
N 26.475106 1.427033 0.014091
C 27.905722 3.407584 0.061188
C 29.144017 2.790171 0.018132
C 30.398428 3.486240 -0.009188
C 31.368248 2.540430 -0.037910
C 30.703183 1.269021 -0.021034
N 29.360234 1.444903 0.003673
C 31.364032 0.030866 -0.024968
C 30.717415 -1.214915 -0.031203
C 31.397421 -2.478309 -0.010653
C 30.439141 -3.435698 -0.041870
C 29.176612 -2.754735 -0.073570
N 29.376736 -1.406894 -0.060228
C 27.946004 -3.387364 -0.116825
C 26.707554 -2.768848 -0.126099
N 26.491539 -1.424533 -0.071083
H 25.343448 -4.528479 -0.240872
H 23.419650 -2.647446 -0.210248
H 23.389387 2.612666 0.166280
H 25.290090 4.516547 0.193196
H 27.899059 4.488421 0.090367
H 30.507581 4.553637 -0.009721
H 32.431618 2.673910 -0.080529
H 32.462040 -2.599132 0.036563
H 30.561300 -4.501687 -0.039521
H 27.952941 -4.468262 -0.144538
