160

Cu 16.637054 0.034358 -0.010392
C 18.966045 -3.112435 1.312297
C 19.882152 -2.168227 1.262015
C 19.470972 -1.114323 0.340723
C 20.089843 0.010023 -0.005687
C 19.385801 1.229971 -0.369792
C 19.713911 2.190026 -1.217266
C 18.679131 3.206311 -1.234164
C 17.742863 2.829849 -0.387272
N 18.144854 1.596838 0.176545
C 16.481789 3.474848 -0.008120
C 15.386572 2.840066 0.342640
C 14.312946 3.158022 1.311668
C 13.475383 2.161268 1.234502
C 13.913681 1.157585 0.254050
N 15.018619 1.596438 -0.230242
C 13.302846 -0.095686 -0.159498
C 13.967007 -1.200192 -0.413923
C 13.593158 -2.263134 -1.371450
C 14.541905 -3.156890 -1.282431
C 15.527629 -2.719440 -0.299553
N 15.174583 -1.573635 0.197244
C 16.758517 -3.375510 0.146168
C 17.881558 -2.729649 0.413289
N 18.210158 -1.482208 -0.185115
H 19.026306 -4.022216 1.929843
H 20.798479 -2.208177 1.840063
H 20.641276 2.206821 -1.818409
H 18.696030 4.111000 -1.846785
H 16.434066 4.569651 -0.011898
H 14.260125 4.036747 1.936660
H 12.563753 2.125598 1.851826
H 12.204596 -0.092775 -0.258769
H 12.724302 -2.315599 -2.020400
H 14.539059 -4.073198 -1.881190
H 16.723035 -4.471312 0.258093
Cu 67.116194 -0.013018 -0.014825
C 64.787203 2.833774 1.868680
C 63.871096 1.915285 1.644106
C 64.282275 1.050588 0.543292
C 63.663405 0.010023 -0.005687
C 64.367447 -1.121202 -0.589790
C 64.039336 -1.907374 -1.600657
C 65.074116 -2.902883 -1.805797
C 66.010384 -2.690067 -0.903767
N 65.608394 -1.583055 -0.120995
C 67.271459 -3.394208 -0.650853
C 68.366676 -2.835515 -0.188420
C 69.440301 -3.327720 0.704802
C 70.277864 -2.333953 0.813887
C 69.839567 -1.165805 0.036652
N 68.734629 -1.507197 -0.520647
C 70.450402 0.142431 -0.137218
C 69.786241 1.274964 -0.182324
C 70.160090 2.497090 -0.926039
C 69.211342 3.358817 -0.672761
C 68.225619 2.746622 0.211903
N 68.578664 1.528544 0.487513
C 66.994731 3.308617 0.771597
C 65.871689 2.624412 0.914265
N 65.543089 1.509637 0.094830
H 64.726941 3.613199 2.644284
H 62.954768 1.847304 2.219532
H 63.111971 -1.812357 -2.194481
H 65.057217 -3.678218 -2.575617
H 67.319181 -4.469306 -0.857667
H 69.493123 -4.307137 1.155929
H 71.189495 -2.413425 1.427113
H 71.548652 0.157986 -0.235305
H 71.028945 2.669033 -1.553992
H 69.214188 4.370298 -1.091138
H 67.030213 4.364633 1.084866
C 23.061854 0.021154 -0.001645
C 24.277387 -0.004190 -0.012125
C 25.698904 -0.025613 -0.016301
C 26.907466 -0.027824 -0.016196
C 28.328541 -0.008864 -0.016823
C 29.539683 0.021154 -0.001645
C 38.637030 0.021154 -0.001645
C 39.852563 -0.004190 -0.012125
C 41.274080 -0.025613 -0.016301
C 42.482641 -0.027824 -0.016196
C 43.903717 -0.008864 -0.016823
C 45.114859 0.021154 -0.001645
C 54.212205 0.021154 -0.001645
C 55.427738 -0.004190 -0.012125
C 56.849255 -0.025613 -0.016301
C 58.057817 -0.027824 -0.016196
C 59.478892 -0.008864 -0.016823
C 60.690034 0.021154 -0.001645
Cu 34.128273 0.032771 0.003183
C 31.848463 -3.228676 -0.906483
C 30.892253 -2.329326 -1.008510
C 31.284628 -1.167021 -0.205994
C 30.649511 -0.015749 0.006273
C 31.334968 1.258851 0.232502
C 30.999678 2.337451 0.936742
C 32.024219 3.356768 0.846161
C 32.974817 2.859843 0.072796
N 32.597822 1.543238 -0.343347
C 34.221956 3.471545 -0.344070
C 35.323508 2.804288 -0.675841
C 36.317054 3.056272 -1.710011
C 37.210937 2.095413 -1.608527
C 36.831239 1.183529 -0.504550
N 35.736324 1.632848 0.002817
C 37.488446 -0.015749 0.006273
C 36.865035 -1.084931 0.467789
C 37.243747 -2.017046 1.543265
C 36.303079 -2.931192 1.629131
C 35.294777 -2.635413 0.631704
N 35.632552 -1.582036 -0.017591
C 34.042384 -3.342420 0.300511
C 32.928508 -2.745724 -0.046831
N 32.546395 -1.462967 0.370852
H 31.848807 -4.219750 -1.397718
H 29.983719 -2.451020 -1.589658
H 30.074826 2.455802 1.513668
H 32.051514 4.345932 1.302811
H 34.307896 4.568922 -0.406093
H 36.349727 3.862488 -2.436835
H 38.103999 1.982445 -2.242301
H 38.158498 -1.942640 2.153435
H 36.322125 -3.744800 2.337398
H 34.080869 -4.442380 0.359547
Cu 49.703449 0.032771 0.003183
C 47.423638 -3.228676 -0.906483
C 46.467429 -2.329326 -1.008510
C 46.859803 -1.167021 -0.205994
C 46.224687 -0.015749 0.006273
C 46.910144 1.258851 0.232502
C 46.574853 2.337451 0.936742
C 47.599395 3.356768 0.846161
C 48.549992 2.859843 0.072796
N 48.172998 1.543238 -0.343347
C 49.797132 3.471545 -0.344070
C 50.898683 2.804288 -0.675841
C 51.892230 3.056272 -1.710011
C 52.786113 2.095413 -1.608527
C 52.406415 1.183529 -0.504550
N 51.311500 1.632848 0.002817
C 53.063622 -0.015749 0.006273
C 52.440210 -1.084931 0.467789
C 52.818923 -2.017046 1.543265
C 51.878254 -2.931192 1.629131
C 50.869953 -2.635413 0.631704
N 51.207728 -1.582036 -0.017591
C 49.617560 -3.342420 0.300511
C 48.503683 -2.745724 -0.046831
N 48.121571 -1.462967 0.370852
H 47.423983 -4.219750 -1.397718
H 45.558895 -2.451020 -1.589658
H 45.650001 2.455802 1.513668
H 47.626690 4.345932 1.302811
H 49.883072 4.568922 -0.406093
H 51.924902 3.862488 -2.436835
H 53.679174 1.982445 -2.242301
H 53.733673 -1.942640 2.153435
H 51.897301 -3.744800 2.337398
H 49.656044 -4.442380 0.359547
