266

C 57.370343 3.379670 0.658885
C 58.344091 2.464924 0.485088
C 57.669592 1.214064 0.188062
C 58.354416 0.007739 -0.055878
C 57.722885 -1.220711 -0.307561
C 58.342161 -2.470355 -0.577470
C 57.350155 -3.389741 -0.761015
C 56.102637 -2.720337 -0.613785
N 56.380535 -1.415330 -0.341643
C 54.843275 -3.289330 -0.733224
C 53.614603 -2.653614 -0.621473
C 52.349372 -3.357138 -0.777158
C 51.383539 -2.433657 -0.617305
C 52.066143 -1.174036 -0.364906
N 53.405121 -1.344411 -0.373077
C 51.399927 0.025882 -0.149939
C 52.007395 1.247586 0.096013
C 51.384751 2.506832 0.330823
C 52.372712 3.424447 0.533257
C 53.624330 2.750520 0.426066
N 53.351066 1.445847 0.161278
C 54.883835 3.312746 0.570797
C 56.112572 2.677167 0.468867
N 56.334892 1.370470 0.190561
H 57.457796 4.423003 0.894314
H 59.407620 2.583468 0.558093
H 59.401173 -2.628864 -0.633999
H 57.461229 -4.433446 -0.982084
H 55.700440 -0.679328 -0.189853
H 54.819364 -4.349526 -0.944621
H 52.256006 -4.406964 -0.979846
H 50.317781 -2.553000 -0.658860
H 50.320018 0.005529 -0.174777
H 50.325010 2.672791 0.341587
H 52.259693 4.471476 0.738064
H 54.030730 0.706708 0.027587
H 54.910032 4.371207 0.791004
C 118.641181 -3.453550 0.024934
C 117.672528 -2.517242 0.014650
C 118.355224 -1.235711 0.008206
C 117.677223 -0.001829 -0.012758
C 118.311514 1.249827 -0.049110
C 117.693226 2.529039 -0.050494
C 118.685912 3.465368 -0.081193
C 119.932630 2.778601 -0.094520
N 119.653756 1.445886 -0.074650
C 121.193439 3.356354 -0.116529
C 122.419190 2.705265 -0.111023
C 123.688224 3.418659 -0.130734
C 124.649265 2.476695 -0.113667
C 123.959927 1.195911 -0.083556
N 122.621702 1.371795 -0.083098
C 124.621006 -0.025667 -0.059596
C 124.010284 -1.269897 -0.029640
C 124.631179 -2.551653 -0.011639
C 123.641792 -3.489495 0.012256
C 122.391031 -2.805693 0.010442
N 122.666132 -1.475019 -0.014475
C 121.129900 -3.382395 0.026599
C 119.903666 -2.733986 0.021957
N 119.689298 -1.396789 0.009811
H 118.547300 -4.522550 0.030283
H 116.607313 -2.642495 -0.002342
H 116.634352 2.696282 -0.019570
H 118.575905 4.532312 -0.089977
H 120.334966 0.695579 -0.071509
H 121.221393 4.437106 -0.135758
H 123.787198 4.487114 -0.153944
H 125.715808 2.596116 -0.119409
H 125.701210 -0.004931 -0.066093
H 125.690865 -2.718162 -0.017685
H 123.753236 -4.556387 0.029333
H 121.986406 -0.724111 -0.022172
H 121.100083 -4.463270 0.041344
C 59.755004 0.026404 -0.045320
C 60.968545 0.045324 -0.039745
C 70.800083 0.002534 0.030203
C 72.013753 0.020384 0.034732
C 81.862858 0.014527 -0.053252
C 83.077493 0.036092 -0.049096
C 92.936441 0.006865 0.038919
C 94.150855 0.030536 0.049507
C 104.010460 -0.000669 0.129037
C 105.224758 0.015440 0.109057
C 115.063149 -0.033736 0.017228
C 116.276361 -0.016732 0.002269
C 63.341723 -3.253661 0.939117
C 62.369555 -2.354287 0.691524
C 63.046461 -1.129215 0.308556
C 62.368323 0.056961 -0.034048
C 63.019037 1.254379 -0.373109
C 62.428813 2.486144 -0.759416
C 63.443313 3.368075 -1.000174
C 64.674088 2.692069 -0.769807
N 64.365484 1.420548 -0.394483
C 65.943968 3.235056 -0.910653
C 67.169706 2.617709 -0.719786
C 68.430162 3.313063 -0.919358
C 69.402226 2.416835 -0.660015
C 68.723871 1.184358 -0.303482
N 67.389393 1.333601 -0.348090
C 69.400805 -0.007362 0.021347
C 68.750517 -1.211947 0.334294
C 69.342166 -2.450908 0.694864
C 68.328281 -3.334977 0.930149
C 67.096745 -2.653101 0.722019
N 67.404312 -1.376855 0.361739
C 65.826866 -3.191317 0.877427
C 64.601341 -2.566354 0.710040
N 64.381174 -1.283750 0.333917
H 63.251785 -4.276894 1.249717
H 61.305623 -2.467049 0.766325
H 61.374280 2.658176 -0.850261
H 63.357436 4.390826 -1.311948
H 65.016916 0.677882 -0.165050
H 65.977774 4.272627 -1.214660
H 68.520649 4.339516 -1.219029
H 70.467115 2.536049 -0.709606
H 70.397323 -2.625894 0.772800
H 68.415117 -4.362738 1.224706
H 66.751936 -0.630633 0.147161
H 65.792285 -4.230329 1.176326
C 74.402671 -3.264426 -0.965427
C 73.425001 -2.380512 -0.685470
C 74.095502 -1.149180 -0.311734
C 73.412813 0.033455 0.033538
C 74.060958 1.232065 0.373230
C 73.469751 2.462075 0.763122
C 74.484579 3.338794 1.021632
C 75.715742 2.661117 0.798118
N 75.407391 1.394803 0.405743
C 76.985466 3.195098 0.971039
C 78.213402 2.579338 0.790273
C 79.468226 3.264552 1.049186
C 80.445884 2.378674 0.776155
C 79.778209 1.165162 0.345463
N 78.442833 1.311053 0.371737
C 80.464575 -0.001487 -0.049138
C 79.813484 -1.185247 -0.436779
C 80.399456 -2.397304 -0.884755
C 79.383777 -3.274538 -1.137444
C 78.155724 -2.614019 -0.854835
N 78.467440 -1.355650 -0.439307
C 76.887178 -3.162451 -0.986589
C 75.658734 -2.561961 -0.762865
N 75.430999 -1.287367 -0.365002
H 74.318656 -4.286495 -1.281479
H 72.360873 -2.507615 -0.730797
H 72.414646 2.636043 0.844370
H 74.398404 4.358921 1.341844
H 76.055818 0.650327 0.172263
H 77.017440 4.225532 1.298842
H 79.551589 4.276963 1.395024
H 81.508332 2.492876 0.862451
H 81.451551 -2.560489 -1.009218
H 79.467275 -4.283843 -1.490875
H 77.821537 -0.621608 -0.168504
H 76.856808 -4.191901 -1.317659
C 85.477688 -3.394141 -0.026713
C 84.498198 -2.469363 0.000697
C 85.163175 -1.180698 -0.028756
C 84.475647 0.050181 -0.039456
C 85.127528 1.295452 -0.036505
C 84.543141 2.587738 -0.072494
C 85.559836 3.498520 -0.027816
C 86.786877 2.780754 0.029124
N 86.473717 1.456030 0.014716
C 88.055293 3.340702 0.101057
C 89.283403 2.700474 0.133993
C 90.535461 3.430237 0.239579
C 91.514860 2.505057 0.223899
C 90.850768 1.221392 0.101250
N 89.515819 1.367543 0.062036
C 91.538399 -0.006958 0.026558
C 90.887950 -1.249828 -0.058632
C 91.474611 -2.537539 -0.161996
C 90.457873 -3.448751 -0.197449
C 89.229084 -2.735435 -0.122826
N 89.541163 -1.412634 -0.046782
C 87.959645 -3.297589 -0.113737
C 86.730860 -2.659659 -0.063449
N 86.498739 -1.324699 -0.054350
H 85.396648 -4.464155 -0.018300
H 83.436248 -2.607224 0.052344
H 83.491372 2.783746 -0.137985
H 85.477264 4.567955 -0.036436
H 87.118478 0.672785 0.033692
H 88.085437 4.421586 0.135320
H 90.615837 4.497442 0.317936
H 92.575881 2.638664 0.301559
H 92.528060 -2.729055 -0.214830
H 90.541554 -4.515583 -0.271353
H 88.895840 -0.631458 0.006936
H 87.929118 -4.378402 -0.150090
C 96.541270 -3.246319 1.087065
C 95.563752 -2.354336 0.833525
C 96.232450 -1.130447 0.434992
C 95.548828 0.045977 0.066271
C 96.203474 1.239245 -0.283911
C 95.622109 2.469069 -0.687119
C 96.641552 3.351249 -0.905450
C 97.866953 2.675880 -0.647022
N 97.550195 1.403657 -0.280924
C 99.136839 3.228733 -0.743032
C 100.363892 2.621134 -0.531829
C 101.618082 3.345326 -0.649657
C 102.595635 2.451449 -0.402791
C 101.928089 1.190194 -0.142993
N 100.593139 1.323869 -0.215180
C 102.612276 -0.009224 0.140398
C 101.958430 -1.218162 0.433148
C 102.540961 -2.480294 0.717174
C 101.521408 -3.356099 0.959408
C 100.294910 -2.648371 0.820394
N 100.611115 -1.364319 0.498049
C 99.024162 -3.180170 0.993705
C 97.796595 -2.555179 0.846386
N 97.567763 -1.276114 0.462280
H 96.457630 -4.266981 1.407712
H 94.500917 -2.471362 0.913448
H 94.570509 2.641322 -0.803910
H 96.562171 4.373867 -1.219366
H 98.190631 0.654813 -0.038243
H 99.169367 4.273380 -1.022427
H 101.701156 4.389130 -0.884493
H 103.657443 2.597987 -0.373128
H 103.593534 -2.683350 0.720843
H 101.601502 -4.396527 1.207785
H 99.970041 -0.598384 0.318704
H 98.991494 -4.223015 1.279707
C 107.628631 -2.819961 2.028647
C 106.648995 -2.035882 1.538037
C 107.312915 -0.995462 0.775585
C 106.623109 0.023845 0.088619
C 107.266554 1.051170 -0.622104
C 106.669419 2.099360 -1.369516
C 107.678581 2.862873 -1.882817
C 108.913358 2.293159 -1.464391
N 108.612052 1.201729 -0.708366
C 110.179317 2.767685 -1.778839
C 111.410319 2.238756 -1.425081
C 112.664340 2.841243 -1.845106
C 113.644306 2.063589 -1.344750
C 112.977235 0.996093 -0.622710
N 111.641259 1.126687 -0.687283
C 113.663359 -0.043976 0.033420
C 113.021348 -1.095577 0.706735
C 113.620788 -2.171806 1.411946
C 112.612078 -2.937092 1.923685
C 111.376320 -2.341602 1.545215
N 111.675860 -1.236361 0.809491
C 110.110318 -2.797585 1.886453
C 108.880576 -2.245514 1.566091
N 108.647860 -1.140947 0.816432
H 107.548584 -3.695451 2.644004
H 105.587861 -2.112011 1.671713
H 105.614136 2.232949 -1.502827
H 107.586216 3.736937 -2.497682
H 109.266588 0.566136 -0.265161
H 110.205219 3.662525 -2.386101
H 112.745547 3.730216 -2.440679
H 114.707634 2.161456 -1.446480
H 114.677367 -2.322173 1.517273
H 112.705218 -3.828786 2.512586
H 111.020194 -0.584643 0.392201
H 110.083741 -3.695653 2.488879
