201

Zn 23.841989 -0.000584 -0.011977
C 26.380153 -3.432022 0.020891
C 27.332106 -2.467798 0.021951
C 26.641118 -1.209959 0.010538
C 27.277758 0.042240 0.006419
C 26.610029 1.277943 -0.000988
C 27.269808 2.552421 -0.000353
C 26.294390 3.492908 -0.005827
C 25.042450 2.790597 -0.010516
N 25.266447 1.446263 -0.007479
C 23.800419 3.402977 -0.017013
C 22.574489 2.758605 -0.022538
C 21.300164 3.424596 -0.029362
C 20.354783 2.456210 -0.035066
C 21.050828 1.197622 -0.031471
N 22.392409 1.412022 -0.023388
C 20.434189 -0.042929 -0.036034
C 21.081422 -1.267831 -0.030450
C 20.416913 -2.543278 -0.033699
C 21.386063 -3.487852 -0.023010
C 22.643381 -2.790383 -0.013543
N 22.427854 -1.448741 -0.018897
C 23.884927 -3.403952 0.000021
C 25.111341 -2.760861 0.008090
N 25.302024 -1.411354 0.002851
H 26.510220 -4.497054 0.027749
H 28.399101 -2.580298 0.030024
H 28.333659 2.691162 0.004813
H 26.398403 4.560743 -0.006394
H 23.787863 4.484098 -0.018088
H 21.166443 4.489407 -0.029653
H 19.287091 2.564428 -0.040873
H 19.353274 -0.056331 -0.043918
H 19.352292 -2.678011 -0.042779
H 21.278891 -4.555640 -0.021526
H 23.899291 -4.485044 0.004303
Zn 87.853370 0.030239 -0.008876
C 85.322311 3.404966 0.641441
C 84.368396 2.458903 0.465626
C 85.056810 1.222207 0.228058
C 84.417412 -0.007383 -0.001007
C 85.082231 -1.223148 -0.230484
C 84.419851 -2.474830 -0.463171
C 85.393323 -3.400309 -0.641225
C 86.646708 -2.711656 -0.517182
N 86.425544 -1.390191 -0.267631
C 87.887465 -3.314977 -0.636520
C 89.114783 -2.683125 -0.524607
C 90.387669 -3.339129 -0.654610
C 91.335135 -2.388165 -0.482752
C 90.641822 -1.150271 -0.247385
N 89.299835 -1.359654 -0.278253
C 91.261149 0.068605 -0.023552
C 90.616547 1.273017 0.206878
C 91.283796 2.525918 0.438101
C 90.316678 3.454903 0.620331
C 89.057820 2.770567 0.500244
N 89.270477 1.451996 0.250027
C 87.817582 3.374636 0.622583
C 86.589779 2.744020 0.510261
N 86.396321 1.418428 0.259893
H 85.194446 4.451429 0.840914
H 83.301597 2.570644 0.491797
H 83.355568 -2.609602 -0.484309
H 85.287451 -4.449706 -0.838599
H 87.897640 -4.377558 -0.836069
H 90.519091 -4.386005 -0.850773
H 92.402571 -2.495636 -0.509172
H 92.342094 0.080876 -0.028672
H 92.348718 2.657484 0.455116
H 90.426164 4.504102 0.817412
H 87.805524 4.436908 0.823615
C 28.675295 0.059059 0.008604
C 29.895195 0.063454 0.010461
C 31.231373 0.070772 0.007771
C 32.455914 0.071539 0.006539
C 33.791914 0.071195 0.003065
C 35.011936 0.069741 -0.003778
C 44.678891 0.036415 -0.022651
C 45.899103 0.034725 -0.021439
C 47.234649 0.032292 -0.021811
C 48.459224 0.031992 -0.021336
C 49.794755 0.032130 -0.020934
C 51.014954 0.034088 -0.021373
C 60.680278 0.042549 -0.023308
C 61.900478 0.043011 -0.021281
C 63.236005 0.044107 -0.021965
C 64.460499 0.043559 -0.022742
C 65.796050 0.040693 -0.023576
C 67.016278 0.038974 -0.021998
C 76.683145 -0.011265 -0.017756
C 77.903195 -0.019509 -0.015591
C 79.239257 -0.025440 -0.011131
C 80.463631 -0.026851 -0.010562
C 81.799810 -0.027766 -0.003091
C 83.019714 -0.020623 -0.002780
Zn 39.845293 0.052456 -0.017138
C 37.340572 -3.376946 0.393671
C 36.379366 -2.427567 0.286525
C 37.058244 -1.172713 0.135413
C 36.408854 0.064869 -0.008573
C 37.066356 1.297416 -0.157403
C 36.395724 2.556773 -0.306999
C 37.363092 3.499050 -0.420976
C 38.620068 2.812223 -0.340330
N 38.408321 1.475212 -0.180738
C 39.856949 3.429629 -0.414076
C 41.089784 2.804325 -0.341562
C 42.351406 3.482724 -0.422445
C 43.312399 2.533499 -0.312618
C 42.633143 1.278403 -0.164988
N 41.292547 1.465460 -0.185038
C 43.282351 0.040666 -0.021937
C 42.625116 -1.192766 0.121415
C 43.296133 -2.452756 0.265052
C 42.328925 -3.395515 0.376050
C 41.071755 -2.708285 0.300095
N 41.283359 -1.370620 0.144970
C 39.834853 -3.325062 0.376196
C 38.601953 -2.698944 0.308350
N 38.399003 -1.360168 0.151971
H 37.220902 -4.435772 0.518810
H 35.313517 -2.548537 0.305747
H 35.330671 2.685130 -0.321582
H 37.250291 4.558468 -0.547817
H 39.860238 4.503468 -0.540485
H 42.471413 4.541671 -0.546519
H 44.378344 2.654570 -0.328321
H 44.361247 -2.581176 0.277280
H 42.441924 -4.455466 0.497919
H 39.831272 -4.399085 0.501089
Zn 55.847502 0.038179 -0.020634
C 53.356541 -3.402951 0.381666
C 52.391631 -2.457899 0.269912
C 53.065685 -1.199909 0.123391
C 52.411486 0.035094 -0.020765
C 53.063451 1.271299 -0.164524
C 52.387040 2.528115 -0.310424
C 53.350179 3.475008 -0.421867
C 54.610239 2.793474 -0.343657
N 54.404457 1.455105 -0.186853
C 55.844483 3.415801 -0.419017
C 57.079876 2.795267 -0.347880
C 58.338668 3.478539 -0.430922
C 59.303524 2.533402 -0.319573
C 58.629448 1.275956 -0.168720
N 57.288135 1.457543 -0.189037
C 59.283731 0.041380 -0.021441
C 58.631863 -1.194410 0.126362
C 59.308281 -2.450787 0.276299
C 58.345111 -3.397607 0.388199
C 57.085041 -2.716531 0.306095
N 57.290844 -1.378380 0.147513
C 55.850743 -3.339239 0.377945
C 54.615323 -2.719152 0.303007
N 54.407029 -1.381229 0.145817
H 53.240939 -4.462365 0.505660
H 51.326235 -2.583590 0.283473
H 51.321400 2.651872 -0.323884
H 53.232614 4.534300 -0.545326
H 55.843476 4.489615 -0.545672
H 58.454303 4.537697 -0.557285
H 60.368925 2.658753 -0.335771
H 60.373924 -2.574295 0.291814
H 58.462664 -4.456581 0.514216
H 55.851722 -4.413047 0.504680
Zn 71.849478 0.014103 -0.019843
C 69.337099 -3.410880 0.388383
C 68.377929 -2.459935 0.277459
C 69.059569 -1.206505 0.127069
C 68.412841 0.031959 -0.020716
C 69.072506 1.263648 -0.167611
C 68.403884 2.524129 -0.318136
C 69.372893 3.465255 -0.427347
C 70.628748 2.776580 -0.343279
N 70.414622 1.439507 -0.186503
C 71.866854 3.392013 -0.410389
C 73.098492 2.764482 -0.333315
C 74.361283 3.441502 -0.405964
C 75.320615 2.490608 -0.295703
C 74.639254 1.235738 -0.156351
N 73.298819 1.424912 -0.180770
C 75.286114 -0.003865 -0.019988
C 74.626258 -1.236661 0.116007
C 75.294471 -2.498545 0.255446
C 74.325294 -3.439257 0.366746
C 73.069695 -2.749024 0.294500
N 73.283979 -1.411730 0.140978
C 71.831630 -3.363516 0.372635
C 70.600034 -2.735263 0.304817
N 70.399815 -1.396144 0.147083
H 69.215051 -4.469345 0.514477
H 67.311767 -2.578915 0.293847
H 67.338991 2.653975 -0.335525
H 69.261872 4.525005 -0.552801
H 71.872629 4.466088 -0.534724
H 74.483081 4.500767 -0.525243
H 76.386718 2.610421 -0.306227
H 76.359250 -2.629568 0.265156
H 74.435928 -4.499717 0.486559
H 71.826208 -4.437458 0.498103
