
  xtb     11212119113D
 xtb: 6.4.1 (bd6e46d)
201240  0     0  0            999 V2000
   23.8420   -0.0006   -0.0120 Zn  0  0  0  0  0  0  0  0  0  0  0  0
   26.3802   -3.4320    0.0209 C   0  0  0  0  0  0  0  0  0  0  0  0
   27.3321   -2.4678    0.0220 C   0  0  0  0  0  0  0  0  0  0  0  0
   26.6411   -1.2100    0.0105 C   0  0  0  0  0  0  0  0  0  0  0  0
   27.2778    0.0422    0.0064 C   0  0  0  0  0  0  0  0  0  0  0  0
   26.6100    1.2779   -0.0010 C   0  0  0  0  0  0  0  0  0  0  0  0
   27.2698    2.5524   -0.0004 C   0  0  0  0  0  0  0  0  0  0  0  0
   26.2944    3.4929   -0.0058 C   0  0  0  0  0  0  0  0  0  0  0  0
   25.0424    2.7906   -0.0105 C   0  0  0  0  0  0  0  0  0  0  0  0
   25.2664    1.4463   -0.0075 N   0  0  0  0  0  0  0  0  0  0  0  0
   23.8004    3.4030   -0.0170 C   0  0  0  0  0  0  0  0  0  0  0  0
   22.5745    2.7586   -0.0225 C   0  0  0  0  0  0  0  0  0  0  0  0
   21.3002    3.4246   -0.0294 C   0  0  0  0  0  0  0  0  0  0  0  0
   20.3548    2.4562   -0.0351 C   0  0  0  0  0  0  0  0  0  0  0  0
   21.0508    1.1976   -0.0315 C   0  0  0  0  0  0  0  0  0  0  0  0
   22.3924    1.4120   -0.0234 N   0  0  0  0  0  0  0  0  0  0  0  0
   20.4342   -0.0429   -0.0360 C   0  0  0  0  0  0  0  0  0  0  0  0
   21.0814   -1.2678   -0.0305 C   0  0  0  0  0  0  0  0  0  0  0  0
   20.4169   -2.5433   -0.0337 C   0  0  0  0  0  0  0  0  0  0  0  0
   21.3861   -3.4879   -0.0230 C   0  0  0  0  0  0  0  0  0  0  0  0
   22.6434   -2.7904   -0.0135 C   0  0  0  0  0  0  0  0  0  0  0  0
   22.4279   -1.4487   -0.0189 N   0  0  0  0  0  0  0  0  0  0  0  0
   23.8849   -3.4040    0.0000 C   0  0  0  0  0  0  0  0  0  0  0  0
   25.1113   -2.7609    0.0081 C   0  0  0  0  0  0  0  0  0  0  0  0
   25.3020   -1.4114    0.0029 N   0  0  0  0  0  0  0  0  0  0  0  0
   26.5102   -4.4971    0.0277 H   0  0  0  0  0  0  0  0  0  0  0  0
   28.3991   -2.5803    0.0300 H   0  0  0  0  0  0  0  0  0  0  0  0
   28.3337    2.6912    0.0048 H   0  0  0  0  0  0  0  0  0  0  0  0
   26.3984    4.5607   -0.0064 H   0  0  0  0  0  0  0  0  0  0  0  0
   23.7879    4.4841   -0.0181 H   0  0  0  0  0  0  0  0  0  0  0  0
   21.1664    4.4894   -0.0297 H   0  0  0  0  0  0  0  0  0  0  0  0
   19.2871    2.5644   -0.0409 H   0  0  0  0  0  0  0  0  0  0  0  0
   19.3533   -0.0563   -0.0439 H   0  0  0  0  0  0  0  0  0  0  0  0
   19.3523   -2.6780   -0.0428 H   0  0  0  0  0  0  0  0  0  0  0  0
   21.2789   -4.5556   -0.0215 H   0  0  0  0  0  0  0  0  0  0  0  0
   23.8993   -4.4850    0.0043 H   0  0  0  0  0  0  0  0  0  0  0  0
   87.8534    0.0302   -0.0089 Zn  0  0  0  0  0  0  0  0  0  0  0  0
   85.3223    3.4050    0.6414 C   0  0  0  0  0  0  0  0  0  0  0  0
   84.3684    2.4589    0.4656 C   0  0  0  0  0  0  0  0  0  0  0  0
   85.0568    1.2222    0.2281 C   0  0  0  0  0  0  0  0  0  0  0  0
   84.4174   -0.0074   -0.0010 C   0  0  0  0  0  0  0  0  0  0  0  0
   85.0822   -1.2231   -0.2305 C   0  0  0  0  0  0  0  0  0  0  0  0
   84.4199   -2.4748   -0.4632 C   0  0  0  0  0  0  0  0  0  0  0  0
   85.3933   -3.4003   -0.6412 C   0  0  0  0  0  0  0  0  0  0  0  0
   86.6467   -2.7117   -0.5172 C   0  0  0  0  0  0  0  0  0  0  0  0
   86.4255   -1.3902   -0.2676 N   0  0  0  0  0  0  0  0  0  0  0  0
   87.8875   -3.3150   -0.6365 C   0  0  0  0  0  0  0  0  0  0  0  0
   89.1148   -2.6831   -0.5246 C   0  0  0  0  0  0  0  0  0  0  0  0
   90.3877   -3.3391   -0.6546 C   0  0  0  0  0  0  0  0  0  0  0  0
   91.3351   -2.3882   -0.4828 C   0  0  0  0  0  0  0  0  0  0  0  0
   90.6418   -1.1503   -0.2474 C   0  0  0  0  0  0  0  0  0  0  0  0
   89.2998   -1.3597   -0.2783 N   0  0  0  0  0  0  0  0  0  0  0  0
   91.2611    0.0686   -0.0236 C   0  0  0  0  0  0  0  0  0  0  0  0
   90.6165    1.2730    0.2069 C   0  0  0  0  0  0  0  0  0  0  0  0
   91.2838    2.5259    0.4381 C   0  0  0  0  0  0  0  0  0  0  0  0
   90.3167    3.4549    0.6203 C   0  0  0  0  0  0  0  0  0  0  0  0
   89.0578    2.7706    0.5002 C   0  0  0  0  0  0  0  0  0  0  0  0
   89.2705    1.4520    0.2500 N   0  0  0  0  0  0  0  0  0  0  0  0
   87.8176    3.3746    0.6226 C   0  0  0  0  0  0  0  0  0  0  0  0
   86.5898    2.7440    0.5103 C   0  0  0  0  0  0  0  0  0  0  0  0
   86.3963    1.4184    0.2599 N   0  0  0  0  0  0  0  0  0  0  0  0
   85.1944    4.4514    0.8409 H   0  0  0  0  0  0  0  0  0  0  0  0
   83.3016    2.5706    0.4918 H   0  0  0  0  0  0  0  0  0  0  0  0
   83.3556   -2.6096   -0.4843 H   0  0  0  0  0  0  0  0  0  0  0  0
   85.2875   -4.4497   -0.8386 H   0  0  0  0  0  0  0  0  0  0  0  0
   87.8976   -4.3776   -0.8361 H   0  0  0  0  0  0  0  0  0  0  0  0
   90.5191   -4.3860   -0.8508 H   0  0  0  0  0  0  0  0  0  0  0  0
   92.4026   -2.4956   -0.5092 H   0  0  0  0  0  0  0  0  0  0  0  0
   92.3421    0.0809   -0.0287 H   0  0  0  0  0  0  0  0  0  0  0  0
   92.3487    2.6575    0.4551 H   0  0  0  0  0  0  0  0  0  0  0  0
   90.4262    4.5041    0.8174 H   0  0  0  0  0  0  0  0  0  0  0  0
   87.8055    4.4369    0.8236 H   0  0  0  0  0  0  0  0  0  0  0  0
   28.6753    0.0591    0.0086 C   0  0  0  0  0  0  0  0  0  0  0  0
   29.8952    0.0635    0.0105 C   0  0  0  0  0  0  0  0  0  0  0  0
   31.2314    0.0708    0.0078 C   0  0  0  0  0  0  0  0  0  0  0  0
   32.4559    0.0715    0.0065 C   0  0  0  0  0  0  0  0  0  0  0  0
   33.7919    0.0712    0.0031 C   0  0  0  0  0  0  0  0  0  0  0  0
   35.0119    0.0697   -0.0038 C   0  0  0  0  0  0  0  0  0  0  0  0
   44.6789    0.0364   -0.0227 C   0  0  0  0  0  0  0  0  0  0  0  0
   45.8991    0.0347   -0.0214 C   0  0  0  0  0  0  0  0  0  0  0  0
   47.2346    0.0323   -0.0218 C   0  0  0  0  0  0  0  0  0  0  0  0
   48.4592    0.0320   -0.0213 C   0  0  0  0  0  0  0  0  0  0  0  0
   49.7948    0.0321   -0.0209 C   0  0  0  0  0  0  0  0  0  0  0  0
   51.0150    0.0341   -0.0214 C   0  0  0  0  0  0  0  0  0  0  0  0
   60.6803    0.0425   -0.0233 C   0  0  0  0  0  0  0  0  0  0  0  0
   61.9005    0.0430   -0.0213 C   0  0  0  0  0  0  0  0  0  0  0  0
   63.2360    0.0441   -0.0220 C   0  0  0  0  0  0  0  0  0  0  0  0
   64.4605    0.0436   -0.0227 C   0  0  0  0  0  0  0  0  0  0  0  0
   65.7960    0.0407   -0.0236 C   0  0  0  0  0  0  0  0  0  0  0  0
   67.0163    0.0390   -0.0220 C   0  0  0  0  0  0  0  0  0  0  0  0
   76.6831   -0.0113   -0.0178 C   0  0  0  0  0  0  0  0  0  0  0  0
   77.9032   -0.0195   -0.0156 C   0  0  0  0  0  0  0  0  0  0  0  0
   79.2393   -0.0254   -0.0111 C   0  0  0  0  0  0  0  0  0  0  0  0
   80.4636   -0.0269   -0.0106 C   0  0  0  0  0  0  0  0  0  0  0  0
   81.7998   -0.0278   -0.0031 C   0  0  0  0  0  0  0  0  0  0  0  0
   83.0197   -0.0206   -0.0028 C   0  0  0  0  0  0  0  0  0  0  0  0
   39.8453    0.0525   -0.0171 Zn  0  0  0  0  0  0  0  0  0  0  0  0
   37.3406   -3.3769    0.3937 C   0  0  0  0  0  0  0  0  0  0  0  0
   36.3794   -2.4276    0.2865 C   0  0  0  0  0  0  0  0  0  0  0  0
   37.0582   -1.1727    0.1354 C   0  0  0  0  0  0  0  0  0  0  0  0
   36.4089    0.0649   -0.0086 C   0  0  0  0  0  0  0  0  0  0  0  0
   37.0664    1.2974   -0.1574 C   0  0  0  0  0  0  0  0  0  0  0  0
   36.3957    2.5568   -0.3070 C   0  0  0  0  0  0  0  0  0  0  0  0
   37.3631    3.4990   -0.4210 C   0  0  0  0  0  0  0  0  0  0  0  0
   38.6201    2.8122   -0.3403 C   0  0  0  0  0  0  0  0  0  0  0  0
   38.4083    1.4752   -0.1807 N   0  0  0  0  0  0  0  0  0  0  0  0
   39.8569    3.4296   -0.4141 C   0  0  0  0  0  0  0  0  0  0  0  0
   41.0898    2.8043   -0.3416 C   0  0  0  0  0  0  0  0  0  0  0  0
   42.3514    3.4827   -0.4224 C   0  0  0  0  0  0  0  0  0  0  0  0
   43.3124    2.5335   -0.3126 C   0  0  0  0  0  0  0  0  0  0  0  0
   42.6331    1.2784   -0.1650 C   0  0  0  0  0  0  0  0  0  0  0  0
   41.2925    1.4655   -0.1850 N   0  0  0  0  0  0  0  0  0  0  0  0
   43.2824    0.0407   -0.0219 C   0  0  0  0  0  0  0  0  0  0  0  0
   42.6251   -1.1928    0.1214 C   0  0  0  0  0  0  0  0  0  0  0  0
   43.2961   -2.4528    0.2651 C   0  0  0  0  0  0  0  0  0  0  0  0
   42.3289   -3.3955    0.3760 C   0  0  0  0  0  0  0  0  0  0  0  0
   41.0718   -2.7083    0.3001 C   0  0  0  0  0  0  0  0  0  0  0  0
   41.2834   -1.3706    0.1450 N   0  0  0  0  0  0  0  0  0  0  0  0
   39.8349   -3.3251    0.3762 C   0  0  0  0  0  0  0  0  0  0  0  0
   38.6020   -2.6989    0.3084 C   0  0  0  0  0  0  0  0  0  0  0  0
   38.3990   -1.3602    0.1520 N   0  0  0  0  0  0  0  0  0  0  0  0
   37.2209   -4.4358    0.5188 H   0  0  0  0  0  0  0  0  0  0  0  0
   35.3135   -2.5485    0.3057 H   0  0  0  0  0  0  0  0  0  0  0  0
   35.3307    2.6851   -0.3216 H   0  0  0  0  0  0  0  0  0  0  0  0
   37.2503    4.5585   -0.5478 H   0  0  0  0  0  0  0  0  0  0  0  0
   39.8602    4.5035   -0.5405 H   0  0  0  0  0  0  0  0  0  0  0  0
   42.4714    4.5417   -0.5465 H   0  0  0  0  0  0  0  0  0  0  0  0
   44.3783    2.6546   -0.3283 H   0  0  0  0  0  0  0  0  0  0  0  0
   44.3612   -2.5812    0.2773 H   0  0  0  0  0  0  0  0  0  0  0  0
   42.4419   -4.4555    0.4979 H   0  0  0  0  0  0  0  0  0  0  0  0
   39.8313   -4.3991    0.5011 H   0  0  0  0  0  0  0  0  0  0  0  0
   55.8475    0.0382   -0.0206 Zn  0  0  0  0  0  0  0  0  0  0  0  0
   53.3565   -3.4030    0.3817 C   0  0  0  0  0  0  0  0  0  0  0  0
   52.3916   -2.4579    0.2699 C   0  0  0  0  0  0  0  0  0  0  0  0
   53.0657   -1.1999    0.1234 C   0  0  0  0  0  0  0  0  0  0  0  0
   52.4115    0.0351   -0.0208 C   0  0  0  0  0  0  0  0  0  0  0  0
   53.0635    1.2713   -0.1645 C   0  0  0  0  0  0  0  0  0  0  0  0
   52.3870    2.5281   -0.3104 C   0  0  0  0  0  0  0  0  0  0  0  0
   53.3502    3.4750   -0.4219 C   0  0  0  0  0  0  0  0  0  0  0  0
   54.6102    2.7935   -0.3437 C   0  0  0  0  0  0  0  0  0  0  0  0
   54.4045    1.4551   -0.1869 N   0  0  0  0  0  0  0  0  0  0  0  0
   55.8445    3.4158   -0.4190 C   0  0  0  0  0  0  0  0  0  0  0  0
   57.0799    2.7953   -0.3479 C   0  0  0  0  0  0  0  0  0  0  0  0
   58.3387    3.4785   -0.4309 C   0  0  0  0  0  0  0  0  0  0  0  0
   59.3035    2.5334   -0.3196 C   0  0  0  0  0  0  0  0  0  0  0  0
   58.6294    1.2760   -0.1687 C   0  0  0  0  0  0  0  0  0  0  0  0
   57.2881    1.4575   -0.1890 N   0  0  0  0  0  0  0  0  0  0  0  0
   59.2837    0.0414   -0.0214 C   0  0  0  0  0  0  0  0  0  0  0  0
   58.6319   -1.1944    0.1264 C   0  0  0  0  0  0  0  0  0  0  0  0
   59.3083   -2.4508    0.2763 C   0  0  0  0  0  0  0  0  0  0  0  0
   58.3451   -3.3976    0.3882 C   0  0  0  0  0  0  0  0  0  0  0  0
   57.0850   -2.7165    0.3061 C   0  0  0  0  0  0  0  0  0  0  0  0
   57.2908   -1.3784    0.1475 N   0  0  0  0  0  0  0  0  0  0  0  0
   55.8507   -3.3392    0.3779 C   0  0  0  0  0  0  0  0  0  0  0  0
   54.6153   -2.7192    0.3030 C   0  0  0  0  0  0  0  0  0  0  0  0
   54.4070   -1.3812    0.1458 N   0  0  0  0  0  0  0  0  0  0  0  0
   53.2409   -4.4624    0.5057 H   0  0  0  0  0  0  0  0  0  0  0  0
   51.3262   -2.5836    0.2835 H   0  0  0  0  0  0  0  0  0  0  0  0
   51.3214    2.6519   -0.3239 H   0  0  0  0  0  0  0  0  0  0  0  0
   53.2326    4.5343   -0.5453 H   0  0  0  0  0  0  0  0  0  0  0  0
   55.8435    4.4896   -0.5457 H   0  0  0  0  0  0  0  0  0  0  0  0
   58.4543    4.5377   -0.5573 H   0  0  0  0  0  0  0  0  0  0  0  0
   60.3689    2.6588   -0.3358 H   0  0  0  0  0  0  0  0  0  0  0  0
   60.3739   -2.5743    0.2918 H   0  0  0  0  0  0  0  0  0  0  0  0
   58.4627   -4.4566    0.5142 H   0  0  0  0  0  0  0  0  0  0  0  0
   55.8517   -4.4130    0.5047 H   0  0  0  0  0  0  0  0  0  0  0  0
   71.8495    0.0141   -0.0198 Zn  0  0  0  0  0  0  0  0  0  0  0  0
   69.3371   -3.4109    0.3884 C   0  0  0  0  0  0  0  0  0  0  0  0
   68.3779   -2.4599    0.2775 C   0  0  0  0  0  0  0  0  0  0  0  0
   69.0596   -1.2065    0.1271 C   0  0  0  0  0  0  0  0  0  0  0  0
   68.4128    0.0320   -0.0207 C   0  0  0  0  0  0  0  0  0  0  0  0
   69.0725    1.2636   -0.1676 C   0  0  0  0  0  0  0  0  0  0  0  0
   68.4039    2.5241   -0.3181 C   0  0  0  0  0  0  0  0  0  0  0  0
   69.3729    3.4653   -0.4273 C   0  0  0  0  0  0  0  0  0  0  0  0
   70.6287    2.7766   -0.3433 C   0  0  0  0  0  0  0  0  0  0  0  0
   70.4146    1.4395   -0.1865 N   0  0  0  0  0  0  0  0  0  0  0  0
   71.8669    3.3920   -0.4104 C   0  0  0  0  0  0  0  0  0  0  0  0
   73.0985    2.7645   -0.3333 C   0  0  0  0  0  0  0  0  0  0  0  0
   74.3613    3.4415   -0.4060 C   0  0  0  0  0  0  0  0  0  0  0  0
   75.3206    2.4906   -0.2957 C   0  0  0  0  0  0  0  0  0  0  0  0
   74.6393    1.2357   -0.1564 C   0  0  0  0  0  0  0  0  0  0  0  0
   73.2988    1.4249   -0.1808 N   0  0  0  0  0  0  0  0  0  0  0  0
   75.2861   -0.0039   -0.0200 C   0  0  0  0  0  0  0  0  0  0  0  0
   74.6263   -1.2367    0.1160 C   0  0  0  0  0  0  0  0  0  0  0  0
   75.2945   -2.4985    0.2554 C   0  0  0  0  0  0  0  0  0  0  0  0
   74.3253   -3.4393    0.3667 C   0  0  0  0  0  0  0  0  0  0  0  0
   73.0697   -2.7490    0.2945 C   0  0  0  0  0  0  0  0  0  0  0  0
   73.2840   -1.4117    0.1410 N   0  0  0  0  0  0  0  0  0  0  0  0
   71.8316   -3.3635    0.3726 C   0  0  0  0  0  0  0  0  0  0  0  0
   70.6000   -2.7353    0.3048 C   0  0  0  0  0  0  0  0  0  0  0  0
   70.3998   -1.3961    0.1471 N   0  0  0  0  0  0  0  0  0  0  0  0
   69.2151   -4.4693    0.5145 H   0  0  0  0  0  0  0  0  0  0  0  0
   67.3118   -2.5789    0.2938 H   0  0  0  0  0  0  0  0  0  0  0  0
   67.3390    2.6540   -0.3355 H   0  0  0  0  0  0  0  0  0  0  0  0
   69.2619    4.5250   -0.5528 H   0  0  0  0  0  0  0  0  0  0  0  0
   71.8726    4.4661   -0.5347 H   0  0  0  0  0  0  0  0  0  0  0  0
   74.4831    4.5008   -0.5252 H   0  0  0  0  0  0  0  0  0  0  0  0
   76.3867    2.6104   -0.3062 H   0  0  0  0  0  0  0  0  0  0  0  0
   76.3593   -2.6296    0.2652 H   0  0  0  0  0  0  0  0  0  0  0  0
   74.4359   -4.4997    0.4866 H   0  0  0  0  0  0  0  0  0  0  0  0
   71.8262   -4.4375    0.4981 H   0  0  0  0  0  0  0  0  0  0  0  0
  2  3  2  0  0  0  0
  3  4  1  0  0  0  0
  4  5  4  0  0  0  0
  5  6  4  0  0  0  0
  6  7  1  0  0  0  0
  7  8  2  0  0  0  0
  8  9  1  0  0  0  0
  1 10  1  0  0  0  0
  6 10  4  0  0  0  0
  9 10  4  0  0  0  0
  9 11  4  0  0  0  0
 11 12  4  0  0  0  0
 12 13  1  0  0  0  0
 13 14  2  0  0  0  0
 14 15  1  0  0  0  0
  1 16  1  0  0  0  0
 12 16  4  0  0  0  0
 15 16  4  0  0  0  0
 15 17  4  0  0  0  0
 17 18  4  0  0  0  0
 18 19  1  0  0  0  0
 19 20  2  0  0  0  0
 20 21  1  0  0  0  0
  1 22  1  0  0  0  0
 18 22  4  0  0  0  0
 21 22  4  0  0  0  0
 21 23  4  0  0  0  0
  2 24  1  0  0  0  0
 23 24  4  0  0  0  0
  1 25  1  0  0  0  0
  4 25  4  0  0  0  0
 24 25  4  0  0  0  0
  2 26  1  0  0  0  0
  3 27  1  0  0  0  0
  7 28  1  0  0  0  0
  8 29  1  0  0  0  0
 11 30  1  0  0  0  0
 13 31  1  0  0  0  0
 14 32  1  0  0  0  0
 17 33  1  0  0  0  0
 19 34  1  0  0  0  0
 20 35  1  0  0  0  0
 23 36  1  0  0  0  0
 38 39  2  0  0  0  0
 39 40  1  0  0  0  0
 40 41  4  0  0  0  0
 41 42  4  0  0  0  0
 42 43  1  0  0  0  0
 43 44  2  0  0  0  0
 44 45  1  0  0  0  0
 37 46  1  0  0  0  0
 42 46  4  0  0  0  0
 45 46  4  0  0  0  0
 45 47  4  0  0  0  0
 47 48  4  0  0  0  0
 48 49  1  0  0  0  0
 49 50  2  0  0  0  0
 50 51  1  0  0  0  0
 37 52  1  0  0  0  0
 48 52  4  0  0  0  0
 51 52  4  0  0  0  0
 51 53  4  0  0  0  0
 53 54  4  0  0  0  0
 54 55  1  0  0  0  0
 55 56  2  0  0  0  0
 56 57  1  0  0  0  0
 37 58  1  0  0  0  0
 54 58  4  0  0  0  0
 57 58  4  0  0  0  0
 57 59  4  0  0  0  0
 38 60  1  0  0  0  0
 59 60  4  0  0  0  0
 37 61  1  0  0  0  0
 40 61  4  0  0  0  0
 60 61  4  0  0  0  0
 38 62  1  0  0  0  0
 39 63  1  0  0  0  0
 43 64  1  0  0  0  0
 44 65  1  0  0  0  0
 47 66  1  0  0  0  0
 49 67  1  0  0  0  0
 50 68  1  0  0  0  0
 53 69  1  0  0  0  0
 55 70  1  0  0  0  0
 56 71  1  0  0  0  0
 59 72  1  0  0  0  0
  5 73  1  0  0  0  0
 73 74  3  0  0  0  0
 74 75  4  0  0  0  0
 75 76  3  0  0  0  0
 76 77  4  0  0  0  0
 77 78  3  0  0  0  0
 79 80  3  0  0  0  0
 80 81  4  0  0  0  0
 81 82  3  0  0  0  0
 82 83  4  0  0  0  0
 83 84  3  0  0  0  0
 85 86  3  0  0  0  0
 86 87  4  0  0  0  0
 87 88  3  0  0  0  0
 88 89  4  0  0  0  0
 89 90  3  0  0  0  0
 91 92  3  0  0  0  0
 92 93  4  0  0  0  0
 93 94  3  0  0  0  0
 94 95  4  0  0  0  0
 41 96  1  0  0  0  0
 95 96  3  0  0  0  0
 98 99  2  0  0  0  0
 99100  1  0  0  0  0
 78101  1  0  0  0  0
100101  4  0  0  0  0
101102  4  0  0  0  0
102103  1  0  0  0  0
103104  2  0  0  0  0
104105  1  0  0  0  0
 97106  1  0  0  0  0
102106  4  0  0  0  0
105106  4  0  0  0  0
105107  4  0  0  0  0
107108  4  0  0  0  0
108109  1  0  0  0  0
109110  2  0  0  0  0
110111  1  0  0  0  0
 97112  1  0  0  0  0
108112  4  0  0  0  0
111112  4  0  0  0  0
 79113  1  0  0  0  0
111113  4  0  0  0  0
113114  4  0  0  0  0
114115  1  0  0  0  0
115116  2  0  0  0  0
116117  1  0  0  0  0
 97118  1  0  0  0  0
114118  4  0  0  0  0
117118  4  0  0  0  0
117119  4  0  0  0  0
 98120  1  0  0  0  0
119120  4  0  0  0  0
 97121  1  0  0  0  0
100121  4  0  0  0  0
120121  4  0  0  0  0
 98122  1  0  0  0  0
 99123  1  0  0  0  0
103124  1  0  0  0  0
104125  1  0  0  0  0
107126  1  0  0  0  0
109127  1  0  0  0  0
110128  1  0  0  0  0
115129  1  0  0  0  0
116130  1  0  0  0  0
119131  1  0  0  0  0
133134  2  0  0  0  0
134135  1  0  0  0  0
 84136  1  0  0  0  0
135136  4  0  0  0  0
136137  4  0  0  0  0
137138  1  0  0  0  0
138139  2  0  0  0  0
139140  1  0  0  0  0
132141  1  0  0  0  0
137141  4  0  0  0  0
140141  4  0  0  0  0
140142  4  0  0  0  0
142143  4  0  0  0  0
143144  1  0  0  0  0
144145  2  0  0  0  0
145146  1  0  0  0  0
132147  1  0  0  0  0
143147  4  0  0  0  0
146147  4  0  0  0  0
 85148  1  0  0  0  0
146148  4  0  0  0  0
148149  4  0  0  0  0
149150  1  0  0  0  0
150151  2  0  0  0  0
151152  1  0  0  0  0
132153  1  0  0  0  0
149153  4  0  0  0  0
152153  4  0  0  0  0
152154  4  0  0  0  0
133155  1  0  0  0  0
154155  4  0  0  0  0
132156  1  0  0  0  0
135156  4  0  0  0  0
155156  4  0  0  0  0
133157  1  0  0  0  0
134158  1  0  0  0  0
138159  1  0  0  0  0
139160  1  0  0  0  0
142161  1  0  0  0  0
144162  1  0  0  0  0
145163  1  0  0  0  0
150164  1  0  0  0  0
151165  1  0  0  0  0
154166  1  0  0  0  0
168169  2  0  0  0  0
169170  1  0  0  0  0
 90171  1  0  0  0  0
170171  4  0  0  0  0
171172  4  0  0  0  0
172173  1  0  0  0  0
173174  2  0  0  0  0
174175  1  0  0  0  0
167176  1  0  0  0  0
172176  4  0  0  0  0
175176  4  0  0  0  0
175177  4  0  0  0  0
177178  4  0  0  0  0
178179  1  0  0  0  0
179180  2  0  0  0  0
180181  1  0  0  0  0
167182  1  0  0  0  0
178182  4  0  0  0  0
181182  4  0  0  0  0
 91183  1  0  0  0  0
181183  4  0  0  0  0
183184  4  0  0  0  0
184185  1  0  0  0  0
185186  2  0  0  0  0
186187  1  0  0  0  0
167188  1  0  0  0  0
184188  4  0  0  0  0
187188  4  0  0  0  0
187189  4  0  0  0  0
168190  1  0  0  0  0
189190  4  0  0  0  0
167191  1  0  0  0  0
170191  4  0  0  0  0
190191  4  0  0  0  0
168192  1  0  0  0  0
169193  1  0  0  0  0
173194  1  0  0  0  0
174195  1  0  0  0  0
177196  1  0  0  0  0
179197  1  0  0  0  0
180198  1  0  0  0  0
185199  1  0  0  0  0
186200  1  0  0  0  0
189201  1  0  0  0  0
M  END
