222
 xtb: 6.4.1 (bd6e46d)
Cu       42.54238474480243    0.03780796047817   -0.01068758760230
C        45.02962662842037   -1.74986700078514    2.94641430419156
C        45.99293809447531   -1.24128636946071    2.14212037165620
C        45.32001496978062   -0.60316943090849    1.04720167368086
C        45.98177559998435    0.04011872375457   -0.00746324549085
C        45.31997572681360    0.68312841639647   -1.06227323099103
C        45.99262481722248    1.32353849290772   -2.15604922348755
C        45.02899782698811    1.83332424573517   -2.95927026050108
C        43.76995401428773    1.49804259355551   -2.35787045623488
N        43.97963961884120    0.79821256469486   -1.20996671956056
C        42.54162151678560    1.84873242287331   -2.88883437134337
C        41.31443427182771    1.51891025301738   -2.34279123960109
C        40.04958317760480    1.88854713696542   -2.91751483063049
C        39.09152088380796    1.37550921056115   -2.11231166833667
C        39.77009196272291    0.69210709070548   -1.04455021202045
N        41.11250764612784    0.80042539052814   -1.20890924639592
C        39.12810431091220    0.02757769036640   -0.01436818129682
C        39.77034478145077   -0.63125331018560    1.01929488225767
C        39.09217639610819   -1.31329619618261    2.08817996369568
C        40.05049275859804   -1.81642152668001    2.89932594360019
C        41.31508325995372   -1.44346437489311    2.32620357790739
N        41.11294773312628   -0.73146747767245    1.18819141488039
C        42.54235455281862   -1.76712019080751    2.87573390938570
C        43.77045296985963   -1.41665470437159    2.34417790337232
N        43.97990785328566   -0.71899472679603    1.19446089051661
H        45.14172968671330   -2.25934684562723    3.88747988731595
H        47.05797502248608   -1.25270670500464    2.28158608779888
H        47.05987191208789    1.33389065401801   -2.28998499429134
H        45.14444699812384    2.34184879619691   -3.89626280101153
H        42.54473514878952    2.37670070516267   -3.83156439523334
H        39.93658736335220    2.41530886799289   -3.84646490722581
H        38.02664612249826    1.41153971959593   -2.23105030932463
H        38.04871104481744    0.02443569442604   -0.01700651836065
H        38.02519978208800   -1.35447192138032    2.20241182051677
H        39.93415871903778   -2.33970355268851    3.83046136721183
H        42.54213010449615   -2.29321493491253    3.82190292998814
Cu       97.07432476244090    0.03829446418592   -0.02265138383688
C        94.58963963005485    2.10228101671751    2.75420811593975
C        93.62557851885289    1.51691566091288    2.00488149393823
C        94.29745514431512    0.77733779293236    0.97506449521182
C        93.63524855092081    0.03851242361451   -0.01484601050720
C        94.29612111724983   -0.69804621932783   -1.00737893566393
C        93.62276922486866   -1.43204408372999   -2.04022739248295
C        94.58578281823881   -2.01043952568159   -2.79623249432387
C        95.84530043744648   -1.62472892546480   -2.22681294011509
N        95.63601051628737   -0.82618956739249   -1.14535859469705
C        97.07342842978147   -2.02307425791149   -2.72361181438370
C        98.30121404211081   -1.65356713207745   -2.20469839977295
C        99.56555074865936   -2.08193034954443   -2.73831082071442
C       100.52428268950246   -1.50928311557502   -1.97521728383339
C        99.84676920428087   -0.72874241286456   -0.97564472253909
N        98.50411435645648   -0.83937287817080   -1.13832535585967
C       100.48937722810632    0.02265544876643   -0.00742846158225
C        99.84837073924236    0.78348936349302    0.95446493323065
C       100.52740937930233    1.56484961987284    1.95236118911472
C        99.56971476130866    2.15426836934028    2.70389101000191
C        98.30447981511256    1.73286150008389    2.16681163631955
N        98.50606983512010    0.90837060639769    1.10722265084546
C        97.07722068017665    2.11369871498494    2.67873594073755
C        95.84837016464860    1.71346069629174    2.18512820074378
N        95.63774113684849    0.90737602833714    1.10911070438624
H        94.47510115530891    2.71175829332543    3.63194062172633
H        92.55902406540686    1.54442399075414    2.13835245269368
H        92.55884968216800   -1.46095956187867   -2.17072978032354
H        94.47469983111654   -2.61496965561526   -3.67452648508915
H        97.07421357382654   -2.65072121803214   -3.60048611156320
H        99.68195633535154   -2.71168490460196   -3.59528848487440
H       101.59156628804006   -1.57928379811593   -2.06686441720990
H       101.56922539816875    0.01608767838937    0.00253576826056
H       101.59219006514164    1.62363118514193    2.06275555638776
H        99.68274326092136    2.78918496588110    3.56615206321289
H        97.07438692572902    2.74816520756154    3.55670195441752
C        47.38407426406335    0.04089321221093   -0.00666955076890
C        48.59697171474887    0.03949345470377   -0.00636999853354
C        58.29158855430597    0.02070999555922   -0.03756959825751
C        59.50513642696275    0.02277575659487   -0.03320919210379
C        69.20072951711040    0.04853380574506   -0.00999853665889
C        70.41428146434242    0.04575336441648   -0.00909958301787
C        80.11101508536316    0.03679064081873   -0.02469738478184
C        81.32457406616693    0.04081953990954   -0.02280162033784
C        91.02002149574575    0.03810939845366   -0.01812992033182
C        92.23292408597538    0.03840612371238   -0.01464346379891
Cu       53.44296408261989    0.02376261055614   -0.03439719121445
C        50.95655860857725   -2.97132826515506    1.68769562775005
C        49.99097312296348   -2.15825665185356    1.19714922250049
C        50.66091749360689   -1.04180901648903    0.59403169571510
C        49.99875145119161    0.03686924442404   -0.00921536027250
C        50.66194277568033    1.11198851353242   -0.61771007528825
C        49.99303158603344    2.23463092692080   -1.21035532921417
C        50.95850037340254    3.03965139353274   -1.71425686318786
C        52.21463140552673    2.41025450158876   -1.42244061119183
N        52.00108207255263    1.24809753115360   -0.74826240186866
C        53.44366621472879    2.92039851205764   -1.79988613429296
C        54.67271962112844    2.35247941894701   -1.51662033687948
C        55.92835697343493    2.89835290651744   -1.94550565519742
C        56.89396566598742    2.08377720590304   -1.45740433847454
C        56.22615458489285    1.04682771220937   -0.72464376260920
N        54.88697749851493    1.22437093481874   -0.78662531183899
C        56.89054897730880    0.01930862075981   -0.03853937204469
C        56.22661190897090   -1.00911487835224    0.64655219113000
C        56.89499829428357   -2.05275655054694    1.36915118248645
C        55.92950410141174   -2.86729402489213    1.85747421154214
C        54.67322271734769   -2.31346585880627    1.44085917799741
N        54.88703989480594   -1.18265983051065    0.71471435833217
C        53.44370347922651   -2.87434459858166    1.73596805411791
C        52.21374407944300   -2.35281211691055    1.37770364719447
N        52.00045468097957   -1.18876156210521    0.70616110877173
H        50.84850165544012   -3.89201629090892    2.22979189611142
H        48.92817298580145   -2.28269715838563    1.23581735181351
H        48.92972551380591    2.36916672797907   -1.22343433937009
H        50.84869036033518    3.96386369718629   -2.24408098408138
H        53.44291081537308    3.83422159516116   -2.37492058592880
H        56.03636043351705    3.77578026330243   -2.55205199997678
H        57.95606533560704    2.14867022755875   -1.58763832808985
H        57.95920798937428   -2.12150049048121    1.49315079300577
H        56.04060406197270   -3.74741161107710    2.46139811603715
H        53.44590352742079   -3.78812299468893    2.31493759404757
Cu       64.35321888811352    0.03809799319618   -0.01083186902441
C        61.87734462655468   -3.36980879291349    0.57513649322454
C        60.90975832220876   -2.44723360916305    0.35878047687210
C        61.57383886153597   -1.18838519396427    0.17998368730055
C        60.90606465742019    0.02748821328731   -0.02815281539189
C        61.56792340574081    1.24760931156975   -0.23030317209987
C        60.89772981144404    2.50285743474330   -0.41168505416503
C        61.86153848645701    3.43162287683574   -0.61834332216625
C        63.11838904824010    2.74286570403682   -0.55412515330544
N        62.90697124230452    1.42164259182272   -0.30570928705755
C        64.34582206165696    3.35120430712294   -0.74482863821577
C        65.57605881958651    2.72421160754393   -0.66485313786041
C        66.82998453198876    3.38153762622807   -0.89693437895357
C        67.79772828773596    2.45514630372090   -0.69813238841054
C        67.13284699667282    1.23668130894712   -0.33616376510111
N        65.79315953794233    1.42128877717948   -0.33732244611534
C        67.79987119938572    0.04658297458072   -0.01029048104892
C        67.13746781883604   -1.14626983360286    0.31526598750252
C        67.80727304673660   -2.36066232596694    0.68182807865008
C        66.84361773855268   -3.29146710986864    0.87961766808769
C        65.58722335981207   -2.64099574230552    0.64186873019075
N        65.79875648008901   -1.33753882704633    0.31331690975108
C        64.36021053287328   -3.27466462271525    0.71776011255687
C        63.13051520160829   -2.67380540124939    0.51843421409301
N        62.91322708089768   -1.35437259454099    0.26620696381578
H        61.77091324132815   -4.42253720157219    0.74971475945664
H        59.84782954683021   -2.58724184566583    0.30636204924998
H        59.83476530310656    2.63668982761008   -0.37078182525468
H        61.75033656073365    4.48387404692498   -0.79717622915805
H        64.34324764356731    4.40692692680298   -0.97850670178337
H        66.93646399156415    4.41180734850179   -1.17878761270349
H        68.86002301757983    2.56304189930701   -0.79696587116781
H        68.86980103199753   -2.46378475551652    0.77605686176883
H        66.95452521050454   -4.32160553307538    1.15483612667586
H        64.36255226674984   -4.33055936370032    0.94597184205282
Cu       75.26299582377304    0.04046977601410   -0.00962832360606
C        72.77401864980952   -3.36883094199936   -0.53816546154832
C        71.80929941511332   -2.42392846658869   -0.43514770403814
C        72.47843167993565   -1.17581950351103   -0.20658265842783
C        71.81515066002233    0.04435876721354   -0.00982861259408
C        72.48137030111468    1.26289435082965    0.18702176533813
C        71.81533031990118    2.51166703452131    0.42089806481170
C        72.78228037997592    3.45424898230351    0.52442574729733
C        74.03676702790747    2.77749103294233    0.36171520360833
N        73.82096616822405    1.44778161000210    0.16920863928978
C        75.26631862913545    3.41050407508665    0.37929526674667
C        76.49426726658611    2.78771553564745    0.24833759802587
C        77.75002719640470    3.48136212604768    0.24227617840764
C        78.71477657716751    2.53848716871639    0.12228608137785
C        78.04630914848691    1.27060412332280    0.06450884359760
N        76.70726683088225    1.44902899118085    0.12806220692641
C        78.71000522824599    0.03795636701217   -0.02348512931532
C        78.04384583921815   -1.19354100094075   -0.10844657675419
C        78.70994653481581   -2.46255103551128   -0.16875801715575
C        77.74304520387264   -3.40405088613703   -0.28200424287194
C        76.48837310803731   -2.70842670706284   -0.28137904251292
N        76.70416551198929   -1.36998810402441   -0.16366573384989
C        75.25861340753062   -3.32938064495429   -0.40366713185453
C        74.03033262969774   -2.69403393141295   -0.38161428048432
N        73.81769351777687   -1.36342372097209   -0.19127061157073
H        72.66396920748302   -4.42037642821430   -0.72358711686378
H        70.74623553961656   -2.53711616194829   -0.52738566061030
H        70.75205468993610    2.62641747102030    0.50832314059166
H        72.67393793656112    4.50546428428881    0.70712523381406
H        75.26700001881173    4.48233029656163    0.51697488921007
H        77.85915647650452    4.54501516908511    0.33047007917392
H        79.77684681593064    2.66932390723067    0.07098749108976
H        79.77248075065775   -2.59418203697671   -0.12606434233401
H        77.85075134793243   -4.46732502962917   -0.37285943285777
H        75.25743039780161   -4.40122482380284   -0.54337235834852
Cu       86.17350795019247    0.03828906485343   -0.01792377022114
C        83.68766280542674   -3.01407983266295   -1.63361441956389
C        82.72208670321186   -2.15656521075121   -1.22575993592788
C        83.39017238753316   -1.04994288996895   -0.60363198683813
C        82.72565351846434    0.03961280823130   -0.02142378050487
C        83.39019608029254    1.12810394326581    0.56269794822423
C        82.72213911237597    2.23327069512819    1.18746169143002
C        83.68781856064952    3.08951405932644    1.59779047033757
C        84.94371814698347    2.50100220379641    1.23069394673080
N        84.72974777593461    1.30789322342509    0.61234018252608
C        86.17293082192158    3.08937075865933    1.46717323473143
C        87.40229277399317    2.54033502785290    1.15068819399308
C        88.65890465559769    3.18920561883982    1.39338951240801
C        89.62456649468484    2.33683595930626    0.97507243085618
C        88.95514341642792    1.16676001848327    0.48351208271707
N        87.61558939275366    1.31931807514164    0.58964552913246
C        89.61823585752343    0.03862191977088   -0.01976291888804
C        88.95527936745684   -1.08874367171903   -0.52498424062558
C        89.62474728717901   -2.25756010766719   -1.01950061153190
C        88.65909917957775   -3.10956964870652   -1.43859477547468
C        87.40241045495439   -2.46195822001130   -1.19300105181138
N        87.61572213983929   -1.24168346405097   -0.63021519170730
C        86.17284491695844   -3.01219977287974   -1.50659832648636
C        84.94362979017463   -2.42451430696208   -1.26841804083255
N        84.72973429701125   -1.23019792315709   -0.65225468658660
H        83.57788786857071   -3.94382277642604   -2.15844282753619
H        81.65857947703982   -2.23338397323410   -1.35035941824907
H        81.65873975764154    2.31084516897337    1.30964152631845
H        83.57833832815369    4.01865591876906    2.12252370222854
H        86.17241464105022    4.05092621307044    1.95984970395247
H        88.76795381951906    4.15624200565914    1.84378566607465
H        90.68796623483377    2.46737709800243    0.99047969268614
H        90.68807872208282   -2.38698689333114   -1.03975333119140
H        88.76802189268948   -4.07441679059982   -1.89530809259627
H        86.17187610894381   -3.97308868762408   -2.00194589594913
