
  xtb     11212119233D
 xtb: 6.4.1 (bd6e46d)
310373  0     0  0            999 V2000
   50.6379    0.0082   -0.0149 Zn  0  0  0  0  0  0  0  0  0  0  0  0
   53.1705   -3.4270    0.0144 C   0  0  0  0  0  0  0  0  0  0  0  0
   54.1240   -2.4643    0.0143 C   0  0  0  0  0  0  0  0  0  0  0  0
   53.4352   -1.2052    0.0039 C   0  0  0  0  0  0  0  0  0  0  0  0
   54.0744    0.0455   -0.0027 C   0  0  0  0  0  0  0  0  0  0  0  0
   53.4085    1.2820   -0.0117 C   0  0  0  0  0  0  0  0  0  0  0  0
   54.0699    2.5557   -0.0148 C   0  0  0  0  0  0  0  0  0  0  0  0
   53.0958    3.4975   -0.0196 C   0  0  0  0  0  0  0  0  0  0  0  0
   51.8428    2.7970   -0.0196 C   0  0  0  0  0  0  0  0  0  0  0  0
   52.0650    1.4524   -0.0150 N   0  0  0  0  0  0  0  0  0  0  0  0
   50.6017    3.4113   -0.0238 C   0  0  0  0  0  0  0  0  0  0  0  0
   49.3746    2.7691   -0.0262 C   0  0  0  0  0  0  0  0  0  0  0  0
   48.1014    3.4372   -0.0325 C   0  0  0  0  0  0  0  0  0  0  0  0
   47.1544    2.4704   -0.0355 C   0  0  0  0  0  0  0  0  0  0  0  0
   47.8483    1.2107   -0.0307 C   0  0  0  0  0  0  0  0  0  0  0  0
   49.1902    1.4228   -0.0247 N   0  0  0  0  0  0  0  0  0  0  0  0
   47.2295   -0.0288   -0.0324 C   0  0  0  0  0  0  0  0  0  0  0  0
   47.8749   -1.2546   -0.0268 C   0  0  0  0  0  0  0  0  0  0  0  0
   47.2085   -2.5291   -0.0280 C   0  0  0  0  0  0  0  0  0  0  0  0
   48.1762   -3.4751   -0.0191 C   0  0  0  0  0  0  0  0  0  0  0  0
   49.4346   -2.7795   -0.0126 C   0  0  0  0  0  0  0  0  0  0  0  0
   49.2211   -1.4376   -0.0180 N   0  0  0  0  0  0  0  0  0  0  0  0
   50.6753   -3.3949   -0.0016 C   0  0  0  0  0  0  0  0  0  0  0  0
   51.9028   -2.7538    0.0040 C   0  0  0  0  0  0  0  0  0  0  0  0
   52.0957   -1.4046   -0.0014 N   0  0  0  0  0  0  0  0  0  0  0  0
   53.2987   -4.4922    0.0205 H   0  0  0  0  0  0  0  0  0  0  0  0
   55.1908   -2.5777    0.0202 H   0  0  0  0  0  0  0  0  0  0  0  0
   55.1340    2.6922   -0.0131 H   0  0  0  0  0  0  0  0  0  0  0  0
   53.2008    4.5653   -0.0228 H   0  0  0  0  0  0  0  0  0  0  0  0
   50.5908    4.4925   -0.0262 H   0  0  0  0  0  0  0  0  0  0  0  0
   47.9695    4.5022   -0.0345 H   0  0  0  0  0  0  0  0  0  0  0  0
   46.0869    2.5804   -0.0406 H   0  0  0  0  0  0  0  0  0  0  0  0
   46.1486   -0.0405   -0.0384 H   0  0  0  0  0  0  0  0  0  0  0  0
   46.1436   -2.6622   -0.0346 H   0  0  0  0  0  0  0  0  0  0  0  0
   48.0674   -4.5427   -0.0171 H   0  0  0  0  0  0  0  0  0  0  0  0
   50.6879   -4.4761    0.0024 H   0  0  0  0  0  0  0  0  0  0  0  0
  144.8062    0.0426   -0.0131 Zn  0  0  0  0  0  0  0  0  0  0  0  0
  142.2815    3.4306    0.5890 C   0  0  0  0  0  0  0  0  0  0  0  0
  141.3258    2.4846    0.4220 C   0  0  0  0  0  0  0  0  0  0  0  0
  142.0118    1.2432    0.2029 C   0  0  0  0  0  0  0  0  0  0  0  0
  141.3697    0.0118   -0.0074 C   0  0  0  0  0  0  0  0  0  0  0  0
  142.0325   -1.2082   -0.2184 C   0  0  0  0  0  0  0  0  0  0  0  0
  141.3681   -2.4619   -0.4341 C   0  0  0  0  0  0  0  0  0  0  0  0
  142.3400   -3.3904   -0.6045 C   0  0  0  0  0  0  0  0  0  0  0  0
  143.5946   -2.7018   -0.4921 C   0  0  0  0  0  0  0  0  0  0  0  0
  143.3756   -1.3776   -0.2563 N   0  0  0  0  0  0  0  0  0  0  0  0
  144.8343   -3.3076   -0.6111 C   0  0  0  0  0  0  0  0  0  0  0  0
  146.0628   -2.6764   -0.5088 C   0  0  0  0  0  0  0  0  0  0  0  0
  147.3344   -3.3352   -0.6375 C   0  0  0  0  0  0  0  0  0  0  0  0
  148.2837   -2.3849   -0.4720 C   0  0  0  0  0  0  0  0  0  0  0  0
  147.5928   -1.1447   -0.2422 C   0  0  0  0  0  0  0  0  0  0  0  0
  146.2504   -1.3518   -0.2711 N   0  0  0  0  0  0  0  0  0  0  0  0
  148.2145    0.0737   -0.0225 C   0  0  0  0  0  0  0  0  0  0  0  0
  147.5720    1.2806    0.2009 C   0  0  0  0  0  0  0  0  0  0  0  0
  148.2415    2.5331    0.4274 C   0  0  0  0  0  0  0  0  0  0  0  0
  147.2760    3.4659    0.5985 C   0  0  0  0  0  0  0  0  0  0  0  0
  146.0159    2.7842    0.4765 C   0  0  0  0  0  0  0  0  0  0  0  0
  146.2263    1.4632    0.2372 N   0  0  0  0  0  0  0  0  0  0  0  0
  144.7767    3.3929    0.5852 C   0  0  0  0  0  0  0  0  0  0  0  0
  143.5477    2.7647    0.4717 C   0  0  0  0  0  0  0  0  0  0  0  0
  143.3517    1.4367    0.2365 N   0  0  0  0  0  0  0  0  0  0  0  0
  142.1557    4.4799    0.7745 H   0  0  0  0  0  0  0  0  0  0  0  0
  140.2593    2.5987    0.4431 H   0  0  0  0  0  0  0  0  0  0  0  0
  140.3037   -2.5950   -0.4509 H   0  0  0  0  0  0  0  0  0  0  0  0
  142.2325   -4.4419   -0.7895 H   0  0  0  0  0  0  0  0  0  0  0  0
  144.8426   -4.3719   -0.8016 H   0  0  0  0  0  0  0  0  0  0  0  0
  147.4639   -4.3833   -0.8284 H   0  0  0  0  0  0  0  0  0  0  0  0
  149.3509   -2.4943   -0.4995 H   0  0  0  0  0  0  0  0  0  0  0  0
  149.2955    0.0835   -0.0255 H   0  0  0  0  0  0  0  0  0  0  0  0
  149.3067    2.6620    0.4490 H   0  0  0  0  0  0  0  0  0  0  0  0
  147.3873    4.5161    0.7892 H   0  0  0  0  0  0  0  0  0  0  0  0
  144.7665    4.4571    0.7759 H   0  0  0  0  0  0  0  0  0  0  0  0
   55.4730    0.0595   -0.0009 C   0  0  0  0  0  0  0  0  0  0  0  0
   56.6912    0.0680   -0.0015 C   0  0  0  0  0  0  0  0  0  0  0  0
   58.0332    0.0730   -0.0006 C   0  0  0  0  0  0  0  0  0  0  0  0
   59.2517    0.0753   -0.0045 C   0  0  0  0  0  0  0  0  0  0  0  0
   68.9252    0.0523   -0.0233 C   0  0  0  0  0  0  0  0  0  0  0  0
   70.1438    0.0500   -0.0245 C   0  0  0  0  0  0  0  0  0  0  0  0
   71.4855    0.0492   -0.0207 C   0  0  0  0  0  0  0  0  0  0  0  0
   72.7041    0.0466   -0.0205 C   0  0  0  0  0  0  0  0  0  0  0  0
   82.3785    0.0435   -0.0223 C   0  0  0  0  0  0  0  0  0  0  0  0
   83.5972    0.0447   -0.0212 C   0  0  0  0  0  0  0  0  0  0  0  0
   84.9389    0.0455   -0.0229 C   0  0  0  0  0  0  0  0  0  0  0  0
   86.1576    0.0456   -0.0211 C   0  0  0  0  0  0  0  0  0  0  0  0
   95.8326    0.0458   -0.0197 C   0  0  0  0  0  0  0  0  0  0  0  0
   97.0513    0.0437   -0.0206 C   0  0  0  0  0  0  0  0  0  0  0  0
   98.3930    0.0460   -0.0185 C   0  0  0  0  0  0  0  0  0  0  0  0
   99.6117    0.0455   -0.0222 C   0  0  0  0  0  0  0  0  0  0  0  0
  109.2866    0.0459   -0.0225 C   0  0  0  0  0  0  0  0  0  0  0  0
  110.5053    0.0450   -0.0233 C   0  0  0  0  0  0  0  0  0  0  0  0
  111.8470    0.0440   -0.0194 C   0  0  0  0  0  0  0  0  0  0  0  0
  113.0657    0.0475   -0.0194 C   0  0  0  0  0  0  0  0  0  0  0  0
  122.7399    0.0466   -0.0244 C   0  0  0  0  0  0  0  0  0  0  0  0
  123.9585    0.0452   -0.0222 C   0  0  0  0  0  0  0  0  0  0  0  0
  125.3002    0.0406   -0.0210 C   0  0  0  0  0  0  0  0  0  0  0  0
  126.5188    0.0361   -0.0224 C   0  0  0  0  0  0  0  0  0  0  0  0
  136.1922   -0.0056   -0.0097 C   0  0  0  0  0  0  0  0  0  0  0  0
  137.4105   -0.0030   -0.0147 C   0  0  0  0  0  0  0  0  0  0  0  0
  138.7527   -0.0015   -0.0118 C   0  0  0  0  0  0  0  0  0  0  0  0
  139.9709    0.0016   -0.0064 C   0  0  0  0  0  0  0  0  0  0  0  0
   64.0883    0.0644   -0.0145 Zn  0  0  0  0  0  0  0  0  0  0  0  0
   61.5864   -3.3684    0.3855 C   0  0  0  0  0  0  0  0  0  0  0  0
   60.6240   -2.4201    0.2797 C   0  0  0  0  0  0  0  0  0  0  0  0
   61.3010   -1.1638    0.1329 C   0  0  0  0  0  0  0  0  0  0  0  0
   60.6497    0.0731   -0.0066 C   0  0  0  0  0  0  0  0  0  0  0  0
   61.3064    1.3067   -0.1490 C   0  0  0  0  0  0  0  0  0  0  0  0
   60.6351    2.5664   -0.2929 C   0  0  0  0  0  0  0  0  0  0  0  0
   61.6019    3.5097   -0.4038 C   0  0  0  0  0  0  0  0  0  0  0  0
   62.8594    2.8232   -0.3271 C   0  0  0  0  0  0  0  0  0  0  0  0
   62.6484    1.4856   -0.1724 N   0  0  0  0  0  0  0  0  0  0  0  0
   64.0961    3.4413   -0.4002 C   0  0  0  0  0  0  0  0  0  0  0  0
   65.3298    2.8171   -0.3308 C   0  0  0  0  0  0  0  0  0  0  0  0
   66.5905    3.4976   -0.4100 C   0  0  0  0  0  0  0  0  0  0  0  0
   67.5529    2.5494   -0.3038 C   0  0  0  0  0  0  0  0  0  0  0  0
   66.8759    1.2927   -0.1601 C   0  0  0  0  0  0  0  0  0  0  0  0
   65.5349    1.4781   -0.1790 N   0  0  0  0  0  0  0  0  0  0  0  0
   67.5274    0.0556   -0.0213 C   0  0  0  0  0  0  0  0  0  0  0  0
   66.8704   -1.1783    0.1192 C   0  0  0  0  0  0  0  0  0  0  0  0
   67.5416   -2.4385    0.2593 C   0  0  0  0  0  0  0  0  0  0  0  0
   66.5748   -3.3818    0.3689 C   0  0  0  0  0  0  0  0  0  0  0  0
   65.3173   -2.6949    0.2953 C   0  0  0  0  0  0  0  0  0  0  0  0
   65.5285   -1.3569    0.1432 N   0  0  0  0  0  0  0  0  0  0  0  0
   64.0808   -3.3128    0.3700 C   0  0  0  0  0  0  0  0  0  0  0  0
   62.8470   -2.6883    0.3031 C   0  0  0  0  0  0  0  0  0  0  0  0
   62.6421   -1.3495    0.1502 N   0  0  0  0  0  0  0  0  0  0  0  0
   61.4681   -4.4277    0.5078 H   0  0  0  0  0  0  0  0  0  0  0  0
   59.5582   -2.5420    0.2977 H   0  0  0  0  0  0  0  0  0  0  0  0
   59.5699    2.6936   -0.3059 H   0  0  0  0  0  0  0  0  0  0  0  0
   61.4885    4.5696   -0.5262 H   0  0  0  0  0  0  0  0  0  0  0  0
   64.0985    4.5156   -0.5233 H   0  0  0  0  0  0  0  0  0  0  0  0
   66.7086    4.5572   -0.5304 H   0  0  0  0  0  0  0  0  0  0  0  0
   68.6186    2.6716   -0.3191 H   0  0  0  0  0  0  0  0  0  0  0  0
   68.6067   -2.5661    0.2702 H   0  0  0  0  0  0  0  0  0  0  0  0
   66.6880   -4.4421    0.4883 H   0  0  0  0  0  0  0  0  0  0  0  0
   64.0782   -4.3871    0.4925 H   0  0  0  0  0  0  0  0  0  0  0  0
   77.5412    0.0447   -0.0213 Zn  0  0  0  0  0  0  0  0  0  0  0  0
   75.0460   -3.3921    0.3861 C   0  0  0  0  0  0  0  0  0  0  0  0
   74.0815   -2.4465    0.2754 C   0  0  0  0  0  0  0  0  0  0  0  0
   74.7558   -1.1892    0.1250 C   0  0  0  0  0  0  0  0  0  0  0  0
   74.1020    0.0456   -0.0224 C   0  0  0  0  0  0  0  0  0  0  0  0
   74.7567    1.2800   -0.1691 C   0  0  0  0  0  0  0  0  0  0  0  0
   74.0831    2.5378   -0.3194 C   0  0  0  0  0  0  0  0  0  0  0  0
   75.0481    3.4829   -0.4299 C   0  0  0  0  0  0  0  0  0  0  0  0
   76.3069    2.7995   -0.3462 C   0  0  0  0  0  0  0  0  0  0  0  0
   76.0983    1.4618   -0.1885 N   0  0  0  0  0  0  0  0  0  0  0  0
   77.5423    3.4205   -0.4155 C   0  0  0  0  0  0  0  0  0  0  0  0
   78.7774    2.7996   -0.3397 C   0  0  0  0  0  0  0  0  0  0  0  0
   80.0365    3.4832   -0.4156 C   0  0  0  0  0  0  0  0  0  0  0  0
   81.0010    2.5375   -0.3054 C   0  0  0  0  0  0  0  0  0  0  0  0
   80.3267    1.2793   -0.1623 C   0  0  0  0  0  0  0  0  0  0  0  0
   78.9852    1.4613   -0.1853 N   0  0  0  0  0  0  0  0  0  0  0  0
   80.9807    0.0438   -0.0213 C   0  0  0  0  0  0  0  0  0  0  0  0
   80.3259   -1.1912    0.1203 C   0  0  0  0  0  0  0  0  0  0  0  0
   80.9995   -2.4498    0.2640 C   0  0  0  0  0  0  0  0  0  0  0  0
   80.0344   -3.3948    0.3751 C   0  0  0  0  0  0  0  0  0  0  0  0
   78.7757   -2.7106    0.2985 C   0  0  0  0  0  0  0  0  0  0  0  0
   78.9843   -1.3726    0.1430 N   0  0  0  0  0  0  0  0  0  0  0  0
   77.5403   -3.3308    0.3738 C   0  0  0  0  0  0  0  0  0  0  0  0
   76.3051   -2.7094    0.3035 C   0  0  0  0  0  0  0  0  0  0  0  0
   76.0973   -1.3716    0.1455 N   0  0  0  0  0  0  0  0  0  0  0  0
   74.9300   -4.4514    0.5118 H   0  0  0  0  0  0  0  0  0  0  0  0
   73.0160   -2.5708    0.2916 H   0  0  0  0  0  0  0  0  0  0  0  0
   73.0177    2.6626   -0.3362 H   0  0  0  0  0  0  0  0  0  0  0  0
   74.9327    4.5421   -0.5561 H   0  0  0  0  0  0  0  0  0  0  0  0
   77.5426    4.4945   -0.5411 H   0  0  0  0  0  0  0  0  0  0  0  0
   80.1525    4.5429   -0.5367 H   0  0  0  0  0  0  0  0  0  0  0  0
   82.0665    2.6623   -0.3175 H   0  0  0  0  0  0  0  0  0  0  0  0
   82.0649   -2.5752    0.2764 H   0  0  0  0  0  0  0  0  0  0  0  0
   80.1498   -4.4545    0.4973 H   0  0  0  0  0  0  0  0  0  0  0  0
   77.5400   -4.4048    0.4995 H   0  0  0  0  0  0  0  0  0  0  0  0
   90.9951    0.0459   -0.0219 Zn  0  0  0  0  0  0  0  0  0  0  0  0
   88.5009   -3.3927    0.3767 C   0  0  0  0  0  0  0  0  0  0  0  0
   87.5361   -2.4473    0.2666 C   0  0  0  0  0  0  0  0  0  0  0  0
   88.2100   -1.1891    0.1212 C   0  0  0  0  0  0  0  0  0  0  0  0
   87.5555    0.0459   -0.0215 C   0  0  0  0  0  0  0  0  0  0  0  0
   88.2099    1.2810   -0.1644 C   0  0  0  0  0  0  0  0  0  0  0  0
   87.5360    2.5392   -0.3096 C   0  0  0  0  0  0  0  0  0  0  0  0
   88.5009    3.4845   -0.4201 C   0  0  0  0  0  0  0  0  0  0  0  0
   89.7598    2.8007   -0.3423 C   0  0  0  0  0  0  0  0  0  0  0  0
   89.5514    1.4627   -0.1866 N   0  0  0  0  0  0  0  0  0  0  0  0
   90.9951    3.4214   -0.4163 C   0  0  0  0  0  0  0  0  0  0  0  0
   92.2304    2.8004   -0.3448 C   0  0  0  0  0  0  0  0  0  0  0  0
   93.4893    3.4838   -0.4256 C   0  0  0  0  0  0  0  0  0  0  0  0
   94.4541    2.5386   -0.3146 C   0  0  0  0  0  0  0  0  0  0  0  0
   93.7803    1.2807   -0.1663 C   0  0  0  0  0  0  0  0  0  0  0  0
   92.4387    1.4625   -0.1876 N   0  0  0  0  0  0  0  0  0  0  0  0
   94.4347    0.0460   -0.0207 C   0  0  0  0  0  0  0  0  0  0  0  0
   93.7802   -1.1888    0.1242 C   0  0  0  0  0  0  0  0  0  0  0  0
   94.4541   -2.4467    0.2722 C   0  0  0  0  0  0  0  0  0  0  0  0
   93.4893   -3.3921    0.3819 C   0  0  0  0  0  0  0  0  0  0  0  0
   92.2304   -2.7088    0.3005 C   0  0  0  0  0  0  0  0  0  0  0  0
   92.4387   -1.3708    0.1443 N   0  0  0  0  0  0  0  0  0  0  0  0
   90.9951   -3.3298    0.3715 C   0  0  0  0  0  0  0  0  0  0  0  0
   89.7598   -2.7090    0.2980 C   0  0  0  0  0  0  0  0  0  0  0  0
   89.5515   -1.3710    0.1426 N   0  0  0  0  0  0  0  0  0  0  0  0
   88.3853   -4.4523    0.4996 H   0  0  0  0  0  0  0  0  0  0  0  0
   86.4706   -2.5722    0.2807 H   0  0  0  0  0  0  0  0  0  0  0  0
   86.4706    2.6642   -0.3228 H   0  0  0  0  0  0  0  0  0  0  0  0
   88.3852    4.5441   -0.5428 H   0  0  0  0  0  0  0  0  0  0  0  0
   90.9951    4.4953   -0.5418 H   0  0  0  0  0  0  0  0  0  0  0  0
   93.6049    4.5432   -0.5504 H   0  0  0  0  0  0  0  0  0  0  0  0
   95.5196    2.6635   -0.3295 H   0  0  0  0  0  0  0  0  0  0  0  0
   95.5195   -2.5715    0.2880 H   0  0  0  0  0  0  0  0  0  0  0  0
   93.6049   -4.4516    0.5060 H   0  0  0  0  0  0  0  0  0  0  0  0
   90.9951   -4.4038    0.4966 H   0  0  0  0  0  0  0  0  0  0  0  0
  104.4492    0.0453   -0.0211 Zn  0  0  0  0  0  0  0  0  0  0  0  0
  101.9551   -3.3921    0.3874 C   0  0  0  0  0  0  0  0  0  0  0  0
  100.9902   -2.4471    0.2752 C   0  0  0  0  0  0  0  0  0  0  0  0
  101.6640   -1.1894    0.1253 C   0  0  0  0  0  0  0  0  0  0  0  0
  101.0096    0.0452   -0.0218 C   0  0  0  0  0  0  0  0  0  0  0  0
  101.6641    1.2798   -0.1685 C   0  0  0  0  0  0  0  0  0  0  0  0
  100.9902    2.5374   -0.3183 C   0  0  0  0  0  0  0  0  0  0  0  0
  101.9550    3.4827   -0.4298 C   0  0  0  0  0  0  0  0  0  0  0  0
  103.2139    2.7994   -0.3480 C   0  0  0  0  0  0  0  0  0  0  0  0
  103.0056    1.4617   -0.1893 N   0  0  0  0  0  0  0  0  0  0  0  0
  104.4492    3.4203   -0.4208 C   0  0  0  0  0  0  0  0  0  0  0  0
  105.6845    2.7996   -0.3469 C   0  0  0  0  0  0  0  0  0  0  0  0
  106.9434    3.4830   -0.4275 C   0  0  0  0  0  0  0  0  0  0  0  0
  107.9082    2.5378   -0.3158 C   0  0  0  0  0  0  0  0  0  0  0  0
  107.2343    1.2800   -0.1669 C   0  0  0  0  0  0  0  0  0  0  0  0
  105.8927    1.4618   -0.1886 N   0  0  0  0  0  0  0  0  0  0  0  0
  107.8888    0.0454   -0.0211 C   0  0  0  0  0  0  0  0  0  0  0  0
  107.2345   -1.1895    0.1242 C   0  0  0  0  0  0  0  0  0  0  0  0
  107.9084   -2.4474    0.2717 C   0  0  0  0  0  0  0  0  0  0  0  0
  106.9435   -3.3925    0.3839 C   0  0  0  0  0  0  0  0  0  0  0  0
  105.6846   -2.7090    0.3042 C   0  0  0  0  0  0  0  0  0  0  0  0
  105.8930   -1.3712    0.1463 N   0  0  0  0  0  0  0  0  0  0  0  0
  104.4493   -3.3296    0.3786 C   0  0  0  0  0  0  0  0  0  0  0  0
  103.2140   -2.7088    0.3058 C   0  0  0  0  0  0  0  0  0  0  0  0
  103.0056   -1.3711    0.1469 N   0  0  0  0  0  0  0  0  0  0  0  0
  101.8395   -4.4514    0.5136 H   0  0  0  0  0  0  0  0  0  0  0  0
   99.9248   -2.5720    0.2902 H   0  0  0  0  0  0  0  0  0  0  0  0
   99.9247    2.6622   -0.3339 H   0  0  0  0  0  0  0  0  0  0  0  0
  101.8393    4.5419   -0.5557 H   0  0  0  0  0  0  0  0  0  0  0  0
  104.4492    4.4940   -0.5479 H   0  0  0  0  0  0  0  0  0  0  0  0
  107.0590    4.5423   -0.5527 H   0  0  0  0  0  0  0  0  0  0  0  0
  108.9736    2.6626   -0.3305 H   0  0  0  0  0  0  0  0  0  0  0  0
  108.9738   -2.5724    0.2857 H   0  0  0  0  0  0  0  0  0  0  0  0
  107.0592   -4.4519    0.5087 H   0  0  0  0  0  0  0  0  0  0  0  0
  104.4493   -4.4033    0.5059 H   0  0  0  0  0  0  0  0  0  0  0  0
  117.9029    0.0475   -0.0213 Zn  0  0  0  0  0  0  0  0  0  0  0  0
  115.4088   -3.3901    0.3871 C   0  0  0  0  0  0  0  0  0  0  0  0
  114.4440   -2.4450    0.2744 C   0  0  0  0  0  0  0  0  0  0  0  0
  115.1179   -1.1872    0.1250 C   0  0  0  0  0  0  0  0  0  0  0  0
  114.4635    0.0474   -0.0213 C   0  0  0  0  0  0  0  0  0  0  0  0
  115.1178    1.2821   -0.1677 C   0  0  0  0  0  0  0  0  0  0  0  0
  114.4439    2.5398   -0.3164 C   0  0  0  0  0  0  0  0  0  0  0  0
  115.4086    3.4850   -0.4289 C   0  0  0  0  0  0  0  0  0  0  0  0
  116.6676    2.8017   -0.3485 C   0  0  0  0  0  0  0  0  0  0  0  0
  116.4594    1.4639   -0.1896 N   0  0  0  0  0  0  0  0  0  0  0  0
  117.9028    3.4223   -0.4235 C   0  0  0  0  0  0  0  0  0  0  0  0
  119.1381    2.8015   -0.3508 C   0  0  0  0  0  0  0  0  0  0  0  0
  120.3971    3.4846   -0.4339 C   0  0  0  0  0  0  0  0  0  0  0  0
  121.3618    2.5394   -0.3217 C   0  0  0  0  0  0  0  0  0  0  0  0
  120.6879    1.2820   -0.1703 C   0  0  0  0  0  0  0  0  0  0  0  0
  119.3463    1.4640   -0.1908 N   0  0  0  0  0  0  0  0  0  0  0  0
  121.3421    0.0475   -0.0224 C   0  0  0  0  0  0  0  0  0  0  0  0
  120.6878   -1.1869    0.1261 C   0  0  0  0  0  0  0  0  0  0  0  0
  121.3619   -2.4444    0.2772 C   0  0  0  0  0  0  0  0  0  0  0  0
  120.3972   -3.3895    0.3902 C   0  0  0  0  0  0  0  0  0  0  0  0
  119.1382   -2.7065    0.3079 C   0  0  0  0  0  0  0  0  0  0  0  0
  119.3463   -1.3689    0.1479 N   0  0  0  0  0  0  0  0  0  0  0  0
  117.9029   -3.3273    0.3813 C   0  0  0  0  0  0  0  0  0  0  0  0
  116.6677   -2.7067    0.3064 C   0  0  0  0  0  0  0  0  0  0  0  0
  116.4595   -1.3690    0.1471 N   0  0  0  0  0  0  0  0  0  0  0  0
  115.2932   -4.4493    0.5129 H   0  0  0  0  0  0  0  0  0  0  0  0
  113.3786   -2.5698    0.2888 H   0  0  0  0  0  0  0  0  0  0  0  0
  113.3784    2.6646   -0.3309 H   0  0  0  0  0  0  0  0  0  0  0  0
  115.2929    4.5443   -0.5545 H   0  0  0  0  0  0  0  0  0  0  0  0
  117.9027    4.4960   -0.5513 H   0  0  0  0  0  0  0  0  0  0  0  0
  120.5127    4.5436   -0.5611 H   0  0  0  0  0  0  0  0  0  0  0  0
  122.4273    2.6640   -0.3378 H   0  0  0  0  0  0  0  0  0  0  0  0
  122.4273   -2.5690    0.2925 H   0  0  0  0  0  0  0  0  0  0  0  0
  120.5129   -4.4486    0.5172 H   0  0  0  0  0  0  0  0  0  0  0  0
  117.9030   -4.4010    0.5095 H   0  0  0  0  0  0  0  0  0  0  0  0
  131.3555    0.0150   -0.0189 Zn  0  0  0  0  0  0  0  0  0  0  0  0
  128.8457   -3.4143    0.3620 C   0  0  0  0  0  0  0  0  0  0  0  0
  127.8854   -2.4637    0.2573 C   0  0  0  0  0  0  0  0  0  0  0  0
  128.5653   -1.2082    0.1164 C   0  0  0  0  0  0  0  0  0  0  0  0
  127.9166    0.0302   -0.0227 C   0  0  0  0  0  0  0  0  0  0  0  0
  128.5763    1.2630   -0.1608 C   0  0  0  0  0  0  0  0  0  0  0  0
  127.9079    2.5245   -0.3031 C   0  0  0  0  0  0  0  0  0  0  0  0
  128.8768    3.4664   -0.4062 C   0  0  0  0  0  0  0  0  0  0  0  0
  130.1328    2.7774   -0.3263 C   0  0  0  0  0  0  0  0  0  0  0  0
  129.9186    1.4394   -0.1780 N   0  0  0  0  0  0  0  0  0  0  0  0
  131.3707    3.3937   -0.3900 C   0  0  0  0  0  0  0  0  0  0  0  0
  132.6031    2.7671   -0.3159 C   0  0  0  0  0  0  0  0  0  0  0  0
  133.8652    3.4457   -0.3856 C   0  0  0  0  0  0  0  0  0  0  0  0
  134.8255    2.4955   -0.2783 C   0  0  0  0  0  0  0  0  0  0  0  0
  134.1456    1.2392   -0.1436 C   0  0  0  0  0  0  0  0  0  0  0  0
  132.8049    1.4272   -0.1685 N   0  0  0  0  0  0  0  0  0  0  0  0
  134.7939   -0.0001   -0.0128 C   0  0  0  0  0  0  0  0  0  0  0  0
  134.1345   -1.2337    0.1149 C   0  0  0  0  0  0  0  0  0  0  0  0
  134.8031   -2.4959    0.2499 C   0  0  0  0  0  0  0  0  0  0  0  0
  133.8342   -3.4379    0.3528 C   0  0  0  0  0  0  0  0  0  0  0  0
  132.5782   -2.7482    0.2800 C   0  0  0  0  0  0  0  0  0  0  0  0
  132.7921   -1.4100    0.1347 N   0  0  0  0  0  0  0  0  0  0  0  0
  131.3401   -3.3638    0.3507 C   0  0  0  0  0  0  0  0  0  0  0  0
  130.1079   -2.7364    0.2847 C   0  0  0  0  0  0  0  0  0  0  0  0
  129.9059   -1.3965    0.1363 N   0  0  0  0  0  0  0  0  0  0  0  0
  128.7251   -4.4738    0.4802 H   0  0  0  0  0  0  0  0  0  0  0  0
  126.8194   -2.5836    0.2718 H   0  0  0  0  0  0  0  0  0  0  0  0
  126.8430    2.6538   -0.3198 H   0  0  0  0  0  0  0  0  0  0  0  0
  128.7659    4.5270   -0.5249 H   0  0  0  0  0  0  0  0  0  0  0  0
  131.3758    4.4684   -0.5089 H   0  0  0  0  0  0  0  0  0  0  0  0
  133.9860    4.5055   -0.5014 H   0  0  0  0  0  0  0  0  0  0  0  0
  135.8915    2.6158   -0.2886 H   0  0  0  0  0  0  0  0  0  0  0  0
  135.8680   -2.6253    0.2635 H   0  0  0  0  0  0  0  0  0  0  0  0
  133.9453   -4.4989    0.4674 H   0  0  0  0  0  0  0  0  0  0  0  0
  131.3353   -4.4386    0.4688 H   0  0  0  0  0  0  0  0  0  0  0  0
  2  3  2  0  0  0  0
  3  4  1  0  0  0  0
  4  5  4  0  0  0  0
  5  6  4  0  0  0  0
  6  7  1  0  0  0  0
  7  8  2  0  0  0  0
  8  9  1  0  0  0  0
  1 10  1  0  0  0  0
  6 10  4  0  0  0  0
  9 10  4  0  0  0  0
  9 11  4  0  0  0  0
 11 12  4  0  0  0  0
 12 13  1  0  0  0  0
 13 14  2  0  0  0  0
 14 15  1  0  0  0  0
  1 16  1  0  0  0  0
 12 16  4  0  0  0  0
 15 16  4  0  0  0  0
 15 17  4  0  0  0  0
 17 18  4  0  0  0  0
 18 19  1  0  0  0  0
 19 20  2  0  0  0  0
 20 21  1  0  0  0  0
  1 22  1  0  0  0  0
 18 22  4  0  0  0  0
 21 22  4  0  0  0  0
 21 23  4  0  0  0  0
  2 24  1  0  0  0  0
 23 24  4  0  0  0  0
  1 25  1  0  0  0  0
  4 25  4  0  0  0  0
 24 25  4  0  0  0  0
  2 26  1  0  0  0  0
  3 27  1  0  0  0  0
  7 28  1  0  0  0  0
  8 29  1  0  0  0  0
 11 30  1  0  0  0  0
 13 31  1  0  0  0  0
 14 32  1  0  0  0  0
 17 33  1  0  0  0  0
 19 34  1  0  0  0  0
 20 35  1  0  0  0  0
 23 36  1  0  0  0  0
 38 39  2  0  0  0  0
 39 40  1  0  0  0  0
 40 41  4  0  0  0  0
 41 42  4  0  0  0  0
 42 43  1  0  0  0  0
 43 44  2  0  0  0  0
 44 45  1  0  0  0  0
 37 46  1  0  0  0  0
 42 46  4  0  0  0  0
 45 46  4  0  0  0  0
 45 47  4  0  0  0  0
 47 48  4  0  0  0  0
 48 49  1  0  0  0  0
 49 50  2  0  0  0  0
 50 51  1  0  0  0  0
 37 52  1  0  0  0  0
 48 52  4  0  0  0  0
 51 52  4  0  0  0  0
 51 53  4  0  0  0  0
 53 54  4  0  0  0  0
 54 55  1  0  0  0  0
 55 56  2  0  0  0  0
 56 57  1  0  0  0  0
 37 58  1  0  0  0  0
 54 58  4  0  0  0  0
 57 58  4  0  0  0  0
 57 59  4  0  0  0  0
 38 60  1  0  0  0  0
 59 60  4  0  0  0  0
 37 61  1  0  0  0  0
 40 61  4  0  0  0  0
 60 61  4  0  0  0  0
 38 62  1  0  0  0  0
 39 63  1  0  0  0  0
 43 64  1  0  0  0  0
 44 65  1  0  0  0  0
 47 66  1  0  0  0  0
 49 67  1  0  0  0  0
 50 68  1  0  0  0  0
 53 69  1  0  0  0  0
 55 70  1  0  0  0  0
 56 71  1  0  0  0  0
 59 72  1  0  0  0  0
  5 73  1  0  0  0  0
 73 74  3  0  0  0  0
 74 75  4  0  0  0  0
 75 76  3  0  0  0  0
 77 78  3  0  0  0  0
 78 79  4  0  0  0  0
 79 80  3  0  0  0  0
 81 82  3  0  0  0  0
 82 83  4  0  0  0  0
 83 84  3  0  0  0  0
 85 86  3  0  0  0  0
 86 87  4  0  0  0  0
 87 88  3  0  0  0  0
 89 90  3  0  0  0  0
 90 91  4  0  0  0  0
 91 92  3  0  0  0  0
 93 94  3  0  0  0  0
 94 95  4  0  0  0  0
 95 96  3  0  0  0  0
 97 98  3  0  0  0  0
 98 99  4  0  0  0  0
 41100  1  0  0  0  0
 99100  3  0  0  0  0
102103  2  0  0  0  0
103104  1  0  0  0  0
 76105  1  0  0  0  0
104105  4  0  0  0  0
105106  4  0  0  0  0
106107  1  0  0  0  0
107108  2  0  0  0  0
108109  1  0  0  0  0
101110  1  0  0  0  0
106110  4  0  0  0  0
109110  4  0  0  0  0
109111  4  0  0  0  0
111112  4  0  0  0  0
112113  1  0  0  0  0
113114  2  0  0  0  0
114115  1  0  0  0  0
101116  1  0  0  0  0
112116  4  0  0  0  0
115116  4  0  0  0  0
 77117  1  0  0  0  0
115117  4  0  0  0  0
117118  4  0  0  0  0
118119  1  0  0  0  0
119120  2  0  0  0  0
120121  1  0  0  0  0
101122  1  0  0  0  0
118122  4  0  0  0  0
121122  4  0  0  0  0
121123  4  0  0  0  0
102124  1  0  0  0  0
123124  4  0  0  0  0
101125  1  0  0  0  0
104125  4  0  0  0  0
124125  4  0  0  0  0
102126  1  0  0  0  0
103127  1  0  0  0  0
107128  1  0  0  0  0
108129  1  0  0  0  0
111130  1  0  0  0  0
113131  1  0  0  0  0
114132  1  0  0  0  0
119133  1  0  0  0  0
120134  1  0  0  0  0
123135  1  0  0  0  0
137138  2  0  0  0  0
138139  1  0  0  0  0
 80140  1  0  0  0  0
139140  4  0  0  0  0
140141  4  0  0  0  0
141142  1  0  0  0  0
142143  2  0  0  0  0
143144  1  0  0  0  0
136145  1  0  0  0  0
141145  4  0  0  0  0
144145  4  0  0  0  0
144146  4  0  0  0  0
146147  4  0  0  0  0
147148  1  0  0  0  0
148149  2  0  0  0  0
149150  1  0  0  0  0
136151  1  0  0  0  0
147151  4  0  0  0  0
150151  4  0  0  0  0
 81152  1  0  0  0  0
150152  4  0  0  0  0
152153  4  0  0  0  0
153154  1  0  0  0  0
154155  2  0  0  0  0
155156  1  0  0  0  0
136157  1  0  0  0  0
153157  4  0  0  0  0
156157  4  0  0  0  0
156158  4  0  0  0  0
137159  1  0  0  0  0
158159  4  0  0  0  0
136160  1  0  0  0  0
139160  4  0  0  0  0
159160  4  0  0  0  0
137161  1  0  0  0  0
138162  1  0  0  0  0
142163  1  0  0  0  0
143164  1  0  0  0  0
146165  1  0  0  0  0
148166  1  0  0  0  0
149167  1  0  0  0  0
154168  1  0  0  0  0
155169  1  0  0  0  0
158170  1  0  0  0  0
172173  2  0  0  0  0
173174  1  0  0  0  0
 84175  1  0  0  0  0
174175  4  0  0  0  0
175176  4  0  0  0  0
176177  1  0  0  0  0
177178  2  0  0  0  0
178179  1  0  0  0  0
171180  1  0  0  0  0
176180  4  0  0  0  0
179180  4  0  0  0  0
179181  4  0  0  0  0
181182  4  0  0  0  0
182183  1  0  0  0  0
183184  2  0  0  0  0
184185  1  0  0  0  0
171186  1  0  0  0  0
182186  4  0  0  0  0
185186  4  0  0  0  0
 85187  1  0  0  0  0
185187  4  0  0  0  0
187188  4  0  0  0  0
188189  1  0  0  0  0
189190  2  0  0  0  0
190191  1  0  0  0  0
171192  1  0  0  0  0
188192  4  0  0  0  0
191192  4  0  0  0  0
191193  4  0  0  0  0
172194  1  0  0  0  0
193194  4  0  0  0  0
171195  1  0  0  0  0
174195  4  0  0  0  0
194195  4  0  0  0  0
172196  1  0  0  0  0
173197  1  0  0  0  0
177198  1  0  0  0  0
178199  1  0  0  0  0
181200  1  0  0  0  0
183201  1  0  0  0  0
184202  1  0  0  0  0
189203  1  0  0  0  0
190204  1  0  0  0  0
193205  1  0  0  0  0
207208  2  0  0  0  0
208209  1  0  0  0  0
 88210  1  0  0  0  0
209210  4  0  0  0  0
210211  4  0  0  0  0
211212  1  0  0  0  0
212213  2  0  0  0  0
213214  1  0  0  0  0
206215  1  0  0  0  0
211215  4  0  0  0  0
214215  4  0  0  0  0
214216  4  0  0  0  0
216217  4  0  0  0  0
217218  1  0  0  0  0
218219  2  0  0  0  0
219220  1  0  0  0  0
206221  1  0  0  0  0
217221  4  0  0  0  0
220221  4  0  0  0  0
 89222  1  0  0  0  0
220222  4  0  0  0  0
222223  4  0  0  0  0
223224  1  0  0  0  0
224225  2  0  0  0  0
225226  1  0  0  0  0
206227  1  0  0  0  0
223227  4  0  0  0  0
226227  4  0  0  0  0
226228  4  0  0  0  0
207229  1  0  0  0  0
228229  4  0  0  0  0
206230  1  0  0  0  0
209230  4  0  0  0  0
229230  4  0  0  0  0
207231  1  0  0  0  0
208232  1  0  0  0  0
212233  1  0  0  0  0
213234  1  0  0  0  0
216235  1  0  0  0  0
218236  1  0  0  0  0
219237  1  0  0  0  0
224238  1  0  0  0  0
225239  1  0  0  0  0
228240  1  0  0  0  0
242243  2  0  0  0  0
243244  1  0  0  0  0
 92245  1  0  0  0  0
244245  4  0  0  0  0
245246  4  0  0  0  0
246247  1  0  0  0  0
247248  2  0  0  0  0
248249  1  0  0  0  0
241250  1  0  0  0  0
246250  4  0  0  0  0
249250  4  0  0  0  0
249251  4  0  0  0  0
251252  4  0  0  0  0
252253  1  0  0  0  0
253254  2  0  0  0  0
254255  1  0  0  0  0
241256  1  0  0  0  0
252256  4  0  0  0  0
255256  4  0  0  0  0
 93257  1  0  0  0  0
255257  4  0  0  0  0
257258  4  0  0  0  0
258259  1  0  0  0  0
259260  2  0  0  0  0
260261  1  0  0  0  0
241262  1  0  0  0  0
258262  4  0  0  0  0
261262  4  0  0  0  0
261263  4  0  0  0  0
242264  1  0  0  0  0
263264  4  0  0  0  0
241265  1  0  0  0  0
244265  4  0  0  0  0
264265  4  0  0  0  0
242266  1  0  0  0  0
243267  1  0  0  0  0
247268  1  0  0  0  0
248269  1  0  0  0  0
251270  1  0  0  0  0
253271  1  0  0  0  0
254272  1  0  0  0  0
259273  1  0  0  0  0
260274  1  0  0  0  0
263275  1  0  0  0  0
277278  2  0  0  0  0
278279  1  0  0  0  0
 96280  1  0  0  0  0
279280  4  0  0  0  0
280281  4  0  0  0  0
281282  1  0  0  0  0
282283  2  0  0  0  0
283284  1  0  0  0  0
276285  1  0  0  0  0
281285  4  0  0  0  0
284285  4  0  0  0  0
284286  4  0  0  0  0
286287  4  0  0  0  0
287288  1  0  0  0  0
288289  2  0  0  0  0
289290  1  0  0  0  0
276291  1  0  0  0  0
287291  4  0  0  0  0
290291  4  0  0  0  0
 97292  1  0  0  0  0
290292  4  0  0  0  0
292293  4  0  0  0  0
293294  1  0  0  0  0
294295  2  0  0  0  0
295296  1  0  0  0  0
276297  1  0  0  0  0
293297  4  0  0  0  0
296297  4  0  0  0  0
296298  4  0  0  0  0
277299  1  0  0  0  0
298299  4  0  0  0  0
276300  1  0  0  0  0
279300  4  0  0  0  0
299300  4  0  0  0  0
277301  1  0  0  0  0
278302  1  0  0  0  0
282303  1  0  0  0  0
283304  1  0  0  0  0
286305  1  0  0  0  0
288306  1  0  0  0  0
289307  1  0  0  0  0
294308  1  0  0  0  0
295309  1  0  0  0  0
298310  1  0  0  0  0
M  END
