
  xtb     11212119153D
 xtb: 6.4.1 (bd6e46d)
248277  0     0  0            999 V2000
   35.5631    3.4201    0.2292 C   0  0  0  0  0  0  0  0  0  0  0  0
   36.5205    2.4739    0.1741 C   0  0  0  0  0  0  0  0  0  0  0  0
   35.8217    1.2056    0.0654 C   0  0  0  0  0  0  0  0  0  0  0  0
   36.4849   -0.0357   -0.0128 C   0  0  0  0  0  0  0  0  0  0  0  0
   35.8350   -1.2777   -0.1061 C   0  0  0  0  0  0  0  0  0  0  0  0
   36.4396   -2.5612   -0.1785 C   0  0  0  0  0  0  0  0  0  0  0  0
   35.4361   -3.4834   -0.2577 C   0  0  0  0  0  0  0  0  0  0  0  0
   34.1974   -2.7827   -0.2368 C   0  0  0  0  0  0  0  0  0  0  0  0
   34.4911   -1.4560   -0.1434 N   0  0  0  0  0  0  0  0  0  0  0  0
   32.9299   -3.3422   -0.3028 C   0  0  0  0  0  0  0  0  0  0  0  0
   31.7127   -2.6751   -0.2894 C   0  0  0  0  0  0  0  0  0  0  0  0
   30.4352   -3.3689   -0.3699 C   0  0  0  0  0  0  0  0  0  0  0  0
   29.4866   -2.4150   -0.3318 C   0  0  0  0  0  0  0  0  0  0  0  0
   30.1918   -1.1469   -0.2270 C   0  0  0  0  0  0  0  0  0  0  0  0
   31.5273   -1.3416   -0.2047 N   0  0  0  0  0  0  0  0  0  0  0  0
   29.5460    0.0811   -0.1576 C   0  0  0  0  0  0  0  0  0  0  0  0
   30.1709    1.3141   -0.0515 C   0  0  0  0  0  0  0  0  0  0  0  0
   29.5647    2.6004    0.0295 C   0  0  0  0  0  0  0  0  0  0  0  0
   30.5643    3.5229    0.1243 C   0  0  0  0  0  0  0  0  0  0  0  0
   31.8068    2.8247    0.1028 C   0  0  0  0  0  0  0  0  0  0  0  0
   31.5169    1.5013   -0.0039 N   0  0  0  0  0  0  0  0  0  0  0  0
   33.0745    3.3829    0.1750 C   0  0  0  0  0  0  0  0  0  0  0  0
   34.2922    2.7197    0.1514 C   0  0  0  0  0  0  0  0  0  0  0  0
   34.4904    1.3830    0.0544 N   0  0  0  0  0  0  0  0  0  0  0  0
   35.6697    4.4846    0.3128 H   0  0  0  0  0  0  0  0  0  0  0  0
   37.5872    2.5850    0.2028 H   0  0  0  0  0  0  0  0  0  0  0  0
   37.4972   -2.7400   -0.1696 H   0  0  0  0  0  0  0  0  0  0  0  0
   35.5340   -4.5494   -0.3250 H   0  0  0  0  0  0  0  0  0  0  0  0
   33.8174   -0.6998   -0.1074 H   0  0  0  0  0  0  0  0  0  0  0  0
   32.8886   -4.4203   -0.3747 H   0  0  0  0  0  0  0  0  0  0  0  0
   30.3229   -4.4336   -0.4444 H   0  0  0  0  0  0  0  0  0  0  0  0
   28.4190   -2.5188   -0.3677 H   0  0  0  0  0  0  0  0  0  0  0  0
   28.4660    0.0752   -0.1864 H   0  0  0  0  0  0  0  0  0  0  0  0
   28.5073    2.7802    0.0165 H   0  0  0  0  0  0  0  0  0  0  0  0
   30.4649    4.5883    0.2020 H   0  0  0  0  0  0  0  0  0  0  0  0
   32.1890    0.7445   -0.0431 H   0  0  0  0  0  0  0  0  0  0  0  0
   33.1174    4.4602    0.2576 H   0  0  0  0  0  0  0  0  0  0  0  0
  111.1271   -3.4089    0.3672 C   0  0  0  0  0  0  0  0  0  0  0  0
  110.1688   -2.4636    0.3096 C   0  0  0  0  0  0  0  0  0  0  0  0
  110.8658   -1.1978    0.1664 C   0  0  0  0  0  0  0  0  0  0  0  0
  110.2013    0.0414    0.0687 C   0  0  0  0  0  0  0  0  0  0  0  0
  110.8500    1.2801   -0.0687 C   0  0  0  0  0  0  0  0  0  0  0  0
  110.2448    2.5612   -0.1704 C   0  0  0  0  0  0  0  0  0  0  0  0
  111.2474    3.4802   -0.2889 C   0  0  0  0  0  0  0  0  0  0  0  0
  112.4862    2.7798   -0.2623 C   0  0  0  0  0  0  0  0  0  0  0  0
  112.1934    1.4565   -0.1277 N   0  0  0  0  0  0  0  0  0  0  0  0
  113.7528    3.3374   -0.3557 C   0  0  0  0  0  0  0  0  0  0  0  0
  114.9707    2.6720   -0.3309 C   0  0  0  0  0  0  0  0  0  0  0  0
  116.2470    3.3645   -0.4361 C   0  0  0  0  0  0  0  0  0  0  0  0
  117.1970    2.4132   -0.3741 C   0  0  0  0  0  0  0  0  0  0  0  0
  116.4936    1.1477   -0.2321 C   0  0  0  0  0  0  0  0  0  0  0  0
  115.1580    1.3414   -0.2099 N   0  0  0  0  0  0  0  0  0  0  0  0
  117.1409   -0.0777   -0.1354 C   0  0  0  0  0  0  0  0  0  0  0  0
  116.5169   -1.3085   -0.0013 C   0  0  0  0  0  0  0  0  0  0  0  0
  117.1236   -2.5932    0.1001 C   0  0  0  0  0  0  0  0  0  0  0  0
  116.1245   -3.5138    0.2154 C   0  0  0  0  0  0  0  0  0  0  0  0
  114.8819   -2.8160    0.1883 C   0  0  0  0  0  0  0  0  0  0  0  0
  115.1712   -1.4947    0.0564 N   0  0  0  0  0  0  0  0  0  0  0  0
  113.6148   -3.3727    0.2805 C   0  0  0  0  0  0  0  0  0  0  0  0
  112.3966   -2.7101    0.2588 C   0  0  0  0  0  0  0  0  0  0  0  0
  112.1968   -1.3754    0.1395 N   0  0  0  0  0  0  0  0  0  0  0  0
  111.0220   -4.4717    0.4717 H   0  0  0  0  0  0  0  0  0  0  0  0
  109.1026   -2.5740    0.3559 H   0  0  0  0  0  0  0  0  0  0  0  0
  109.1874    2.7407   -0.1537 H   0  0  0  0  0  0  0  0  0  0  0  0
  111.1488    4.5438   -0.3859 H   0  0  0  0  0  0  0  0  0  0  0  0
  112.8668    0.7007   -0.0784 H   0  0  0  0  0  0  0  0  0  0  0  0
  113.7928    4.4130   -0.4593 H   0  0  0  0  0  0  0  0  0  0  0  0
  116.3577    4.4268   -0.5411 H   0  0  0  0  0  0  0  0  0  0  0  0
  118.2643    2.5171   -0.4165 H   0  0  0  0  0  0  0  0  0  0  0  0
  118.2208   -0.0717   -0.1680 H   0  0  0  0  0  0  0  0  0  0  0  0
  118.1810   -2.7732    0.0854 H   0  0  0  0  0  0  0  0  0  0  0  0
  116.2243   -4.5777    0.3111 H   0  0  0  0  0  0  0  0  0  0  0  0
  114.4994   -0.7383    0.0065 H   0  0  0  0  0  0  0  0  0  0  0  0
  113.5729   -4.4485    0.3817 H   0  0  0  0  0  0  0  0  0  0  0  0
   37.8805   -0.0375    0.0014 C   0  0  0  0  0  0  0  0  0  0  0  0
   39.1009   -0.0275    0.0091 C   0  0  0  0  0  0  0  0  0  0  0  0
   40.4362   -0.0185    0.0147 C   0  0  0  0  0  0  0  0  0  0  0  0
   41.6610   -0.0061    0.0151 C   0  0  0  0  0  0  0  0  0  0  0  0
   42.9960    0.0053    0.0179 C   0  0  0  0  0  0  0  0  0  0  0  0
   44.2167    0.0173    0.0179 C   0  0  0  0  0  0  0  0  0  0  0  0
   54.0293   -0.0394    0.0182 C   0  0  0  0  0  0  0  0  0  0  0  0
   55.2500   -0.0249    0.0048 C   0  0  0  0  0  0  0  0  0  0  0  0
   56.5844   -0.0041   -0.0035 C   0  0  0  0  0  0  0  0  0  0  0  0
   57.8093    0.0205   -0.0123 C   0  0  0  0  0  0  0  0  0  0  0  0
   59.1437    0.0397   -0.0192 C   0  0  0  0  0  0  0  0  0  0  0  0
   60.3644    0.0553   -0.0241 C   0  0  0  0  0  0  0  0  0  0  0  0
   70.1741   -0.0329    0.0224 C   0  0  0  0  0  0  0  0  0  0  0  0
   71.3948   -0.0173    0.0158 C   0  0  0  0  0  0  0  0  0  0  0  0
   72.7292   -0.0040    0.0081 C   0  0  0  0  0  0  0  0  0  0  0  0
   73.9542    0.0190   -0.0024 C   0  0  0  0  0  0  0  0  0  0  0  0
   75.2887    0.0336   -0.0116 C   0  0  0  0  0  0  0  0  0  0  0  0
   76.5094    0.0456   -0.0194 C   0  0  0  0  0  0  0  0  0  0  0  0
   86.3207   -0.0346   -0.0014 C   0  0  0  0  0  0  0  0  0  0  0  0
   87.5415   -0.0207   -0.0038 C   0  0  0  0  0  0  0  0  0  0  0  0
   88.8760   -0.0053   -0.0044 C   0  0  0  0  0  0  0  0  0  0  0  0
   90.1011    0.0139   -0.0051 C   0  0  0  0  0  0  0  0  0  0  0  0
   91.4356    0.0305   -0.0015 C   0  0  0  0  0  0  0  0  0  0  0  0
   92.6563    0.0465    0.0039 C   0  0  0  0  0  0  0  0  0  0  0  0
  102.4703    0.0004    0.1743 C   0  0  0  0  0  0  0  0  0  0  0  0
  103.6909    0.0157    0.1763 C   0  0  0  0  0  0  0  0  0  0  0  0
  105.0260    0.0267    0.1700 C   0  0  0  0  0  0  0  0  0  0  0  0
  106.2508    0.0363    0.1541 C   0  0  0  0  0  0  0  0  0  0  0  0
  107.5859    0.0419    0.1330 C   0  0  0  0  0  0  0  0  0  0  0  0
  108.8061    0.0452    0.1055 C   0  0  0  0  0  0  0  0  0  0  0  0
   46.5804   -3.4037    0.4260 C   0  0  0  0  0  0  0  0  0  0  0  0
   45.6084   -2.4773    0.3139 C   0  0  0  0  0  0  0  0  0  0  0  0
   46.2881   -1.2038    0.1641 C   0  0  0  0  0  0  0  0  0  0  0  0
   45.6110    0.0243    0.0196 C   0  0  0  0  0  0  0  0  0  0  0  0
   46.2609    1.2623   -0.1239 C   0  0  0  0  0  0  0  0  0  0  0  0
   45.6657    2.5418   -0.2747 C   0  0  0  0  0  0  0  0  0  0  0  0
   46.6780    3.4525   -0.3822 C   0  0  0  0  0  0  0  0  0  0  0  0
   47.9108    2.7473   -0.2993 C   0  0  0  0  0  0  0  0  0  0  0  0
   47.6065    1.4295   -0.1435 N   0  0  0  0  0  0  0  0  0  0  0  0
   49.1804    3.3052   -0.3670 C   0  0  0  0  0  0  0  0  0  0  0  0
   50.4055    2.6628   -0.2930 C   0  0  0  0  0  0  0  0  0  0  0  0
   51.6662    3.3800   -0.3813 C   0  0  0  0  0  0  0  0  0  0  0  0
   52.6380    2.4529   -0.2735 C   0  0  0  0  0  0  0  0  0  0  0  0
   51.9580    1.1800   -0.1202 C   0  0  0  0  0  0  0  0  0  0  0  0
   50.6242    1.3345   -0.1354 N   0  0  0  0  0  0  0  0  0  0  0  0
   52.6355   -0.0481    0.0245 C   0  0  0  0  0  0  0  0  0  0  0  0
   51.9863   -1.2856    0.1749 C   0  0  0  0  0  0  0  0  0  0  0  0
   52.5813   -2.5650    0.3281 C   0  0  0  0  0  0  0  0  0  0  0  0
   51.5686   -3.4750    0.4386 C   0  0  0  0  0  0  0  0  0  0  0  0
   50.3359   -2.7697    0.3547 C   0  0  0  0  0  0  0  0  0  0  0  0
   50.6407   -1.4521    0.1966 N   0  0  0  0  0  0  0  0  0  0  0  0
   49.0664   -3.3275    0.4210 C   0  0  0  0  0  0  0  0  0  0  0  0
   47.8410   -2.6856    0.3429 C   0  0  0  0  0  0  0  0  0  0  0  0
   47.6221   -1.3577    0.1847 N   0  0  0  0  0  0  0  0  0  0  0  0
   46.4899   -4.4655    0.5520 H   0  0  0  0  0  0  0  0  0  0  0  0
   44.5433   -2.6050    0.3272 H   0  0  0  0  0  0  0  0  0  0  0  0
   44.6094    2.7269   -0.2967 H   0  0  0  0  0  0  0  0  0  0  0  0
   46.5890    4.5141   -0.5076 H   0  0  0  0  0  0  0  0  0  0  0  0
   48.2619    0.6609   -0.0531 H   0  0  0  0  0  0  0  0  0  0  0  0
   49.2142    4.3788   -0.4944 H   0  0  0  0  0  0  0  0  0  0  0  0
   51.7570    4.4417   -0.5080 H   0  0  0  0  0  0  0  0  0  0  0  0
   53.7031    2.5800   -0.2912 H   0  0  0  0  0  0  0  0  0  0  0  0
   53.6375   -2.7505    0.3494 H   0  0  0  0  0  0  0  0  0  0  0  0
   51.6574   -4.5363    0.5661 H   0  0  0  0  0  0  0  0  0  0  0  0
   49.9867   -0.6825    0.1046 H   0  0  0  0  0  0  0  0  0  0  0  0
   49.0326   -4.4010    0.5493 H   0  0  0  0  0  0  0  0  0  0  0  0
   62.7132   -3.3712    0.3949 C   0  0  0  0  0  0  0  0  0  0  0  0
   61.7454   -2.4411    0.2774 C   0  0  0  0  0  0  0  0  0  0  0  0
   62.4306   -1.1706    0.1281 C   0  0  0  0  0  0  0  0  0  0  0  0
   61.7582    0.0595   -0.0237 C   0  0  0  0  0  0  0  0  0  0  0  0
   62.4122    1.2947   -0.1728 C   0  0  0  0  0  0  0  0  0  0  0  0
   61.8216    2.5751   -0.3335 C   0  0  0  0  0  0  0  0  0  0  0  0
   62.8374    3.4824   -0.4389 C   0  0  0  0  0  0  0  0  0  0  0  0
   64.0675    2.7741   -0.3444 C   0  0  0  0  0  0  0  0  0  0  0  0
   63.7583    1.4577   -0.1854 N   0  0  0  0  0  0  0  0  0  0  0  0
   65.3392    3.3281   -0.4025 C   0  0  0  0  0  0  0  0  0  0  0  0
   66.5617    2.6823   -0.3150 C   0  0  0  0  0  0  0  0  0  0  0  0
   67.8253    3.3957   -0.3927 C   0  0  0  0  0  0  0  0  0  0  0  0
   68.7932    2.4657   -0.2750 C   0  0  0  0  0  0  0  0  0  0  0  0
   68.1080    1.1950   -0.1261 C   0  0  0  0  0  0  0  0  0  0  0  0
   66.7748    1.3537   -0.1530 N   0  0  0  0  0  0  0  0  0  0  0  0
   68.7803   -0.0352    0.0249 C   0  0  0  0  0  0  0  0  0  0  0  0
   68.1260   -1.2703    0.1739 C   0  0  0  0  0  0  0  0  0  0  0  0
   68.7167   -2.5509    0.3337 C   0  0  0  0  0  0  0  0  0  0  0  0
   67.7011   -3.4582    0.4390 C   0  0  0  0  0  0  0  0  0  0  0  0
   66.4709   -2.7500    0.3451 C   0  0  0  0  0  0  0  0  0  0  0  0
   66.7800   -1.4335    0.1867 N   0  0  0  0  0  0  0  0  0  0  0  0
   65.1993   -3.3040    0.4034 C   0  0  0  0  0  0  0  0  0  0  0  0
   63.9768   -2.6581    0.3166 C   0  0  0  0  0  0  0  0  0  0  0  0
   63.7638   -1.3294    0.1546 N   0  0  0  0  0  0  0  0  0  0  0  0
   62.6179   -4.4324    0.5221 H   0  0  0  0  0  0  0  0  0  0  0  0
   60.6798   -2.5649    0.2860 H   0  0  0  0  0  0  0  0  0  0  0  0
   60.7660    2.7631   -0.3631 H   0  0  0  0  0  0  0  0  0  0  0  0
   62.7521    4.5436   -0.5697 H   0  0  0  0  0  0  0  0  0  0  0  0
   64.4105    0.6874   -0.0872 H   0  0  0  0  0  0  0  0  0  0  0  0
   65.3773    4.4013   -0.5327 H   0  0  0  0  0  0  0  0  0  0  0  0
   67.9205    4.4569   -0.5195 H   0  0  0  0  0  0  0  0  0  0  0  0
   69.8588    2.5895   -0.2829 H   0  0  0  0  0  0  0  0  0  0  0  0
   69.7723   -2.7388    0.3631 H   0  0  0  0  0  0  0  0  0  0  0  0
   67.7864   -4.5195    0.5693 H   0  0  0  0  0  0  0  0  0  0  0  0
   66.1273   -0.6635    0.0888 H   0  0  0  0  0  0  0  0  0  0  0  0
   65.1612   -4.3772    0.5332 H   0  0  0  0  0  0  0  0  0  0  0  0
   78.8630   -3.3796    0.3934 C   0  0  0  0  0  0  0  0  0  0  0  0
   77.8938   -2.4504    0.2800 C   0  0  0  0  0  0  0  0  0  0  0  0
   78.5772   -1.1794    0.1262 C   0  0  0  0  0  0  0  0  0  0  0  0
   77.9032    0.0500   -0.0233 C   0  0  0  0  0  0  0  0  0  0  0  0
   78.5560    1.2856   -0.1747 C   0  0  0  0  0  0  0  0  0  0  0  0
   77.9641    2.5660   -0.3313 C   0  0  0  0  0  0  0  0  0  0  0  0
   78.9790    3.4737   -0.4410 C   0  0  0  0  0  0  0  0  0  0  0  0
   80.2099    2.7658   -0.3534 C   0  0  0  0  0  0  0  0  0  0  0  0
   79.9019    1.4492   -0.1936 N   0  0  0  0  0  0  0  0  0  0  0  0
   81.4809    3.3204   -0.4188 C   0  0  0  0  0  0  0  0  0  0  0  0
   82.7043    2.6754   -0.3376 C   0  0  0  0  0  0  0  0  0  0  0  0
   83.9670    3.3896   -0.4227 C   0  0  0  0  0  0  0  0  0  0  0  0
   84.9362    2.4607   -0.3072 C   0  0  0  0  0  0  0  0  0  0  0  0
   84.2528    1.1898   -0.1529 C   0  0  0  0  0  0  0  0  0  0  0  0
   82.9194    1.3473   -0.1746 N   0  0  0  0  0  0  0  0  0  0  0  0
   84.9268   -0.0394   -0.0019 C   0  0  0  0  0  0  0  0  0  0  0  0
   84.2741   -1.2753    0.1478 C   0  0  0  0  0  0  0  0  0  0  0  0
   84.8659   -2.5557    0.3034 C   0  0  0  0  0  0  0  0  0  0  0  0
   83.8511   -3.4637    0.4110 C   0  0  0  0  0  0  0  0  0  0  0  0
   82.6202   -2.7558    0.3234 C   0  0  0  0  0  0  0  0  0  0  0  0
   82.9281   -1.4390    0.1653 N   0  0  0  0  0  0  0  0  0  0  0  0
   81.3491   -3.3105    0.3880 C   0  0  0  0  0  0  0  0  0  0  0  0
   80.1257   -2.6654    0.3079 C   0  0  0  0  0  0  0  0  0  0  0  0
   79.9107   -1.3370    0.1463 N   0  0  0  0  0  0  0  0  0  0  0  0
   78.7694   -4.4407    0.5222 H   0  0  0  0  0  0  0  0  0  0  0  0
   76.8284   -2.5750    0.2942 H   0  0  0  0  0  0  0  0  0  0  0  0
   76.9084    2.7537   -0.3554 H   0  0  0  0  0  0  0  0  0  0  0  0
   78.8927    4.5350   -0.5703 H   0  0  0  0  0  0  0  0  0  0  0  0
   80.5549    0.6790   -0.0992 H   0  0  0  0  0  0  0  0  0  0  0  0
   81.5177    4.3935   -0.5495 H   0  0  0  0  0  0  0  0  0  0  0  0
   84.0607    4.4506   -0.5526 H   0  0  0  0  0  0  0  0  0  0  0  0
   86.0016    2.5855   -0.3206 H   0  0  0  0  0  0  0  0  0  0  0  0
   85.9217   -2.7433    0.3282 H   0  0  0  0  0  0  0  0  0  0  0  0
   83.9374   -4.5252    0.5389 H   0  0  0  0  0  0  0  0  0  0  0  0
   82.2751   -0.6689    0.0712 H   0  0  0  0  0  0  0  0  0  0  0  0
   81.3123   -4.3837    0.5176 H   0  0  0  0  0  0  0  0  0  0  0  0
   95.0169   -3.3673    0.4771 C   0  0  0  0  0  0  0  0  0  0  0  0
   94.0458   -2.4435    0.3395 C   0  0  0  0  0  0  0  0  0  0  0  0
   94.7262   -1.1704    0.1895 C   0  0  0  0  0  0  0  0  0  0  0  0
   94.0501    0.0552    0.0199 C   0  0  0  0  0  0  0  0  0  0  0  0
   94.7012    1.2917   -0.1309 C   0  0  0  0  0  0  0  0  0  0  0  0
   94.1083    2.5686   -0.3103 C   0  0  0  0  0  0  0  0  0  0  0  0
   95.1220    3.4787   -0.4095 C   0  0  0  0  0  0  0  0  0  0  0  0
   96.3535    2.7758   -0.2921 C   0  0  0  0  0  0  0  0  0  0  0  0
   96.0468    1.4596   -0.1266 N   0  0  0  0  0  0  0  0  0  0  0  0
   97.6234    3.3348   -0.3364 C   0  0  0  0  0  0  0  0  0  0  0  0
   98.8480    2.6961   -0.2264 C   0  0  0  0  0  0  0  0  0  0  0  0
  100.1087    3.4158   -0.2922 C   0  0  0  0  0  0  0  0  0  0  0  0
  101.0800    2.4921   -0.1548 C   0  0  0  0  0  0  0  0  0  0  0  0
  100.4000    1.2188   -0.0059 C   0  0  0  0  0  0  0  0  0  0  0  0
   99.0662    1.3701   -0.0515 N   0  0  0  0  0  0  0  0  0  0  0  0
  101.0761   -0.0069    0.1619 C   0  0  0  0  0  0  0  0  0  0  0  0
  100.4246   -1.2433    0.3120 C   0  0  0  0  0  0  0  0  0  0  0  0
  101.0175   -2.5204    0.4901 C   0  0  0  0  0  0  0  0  0  0  0  0
  100.0037   -3.4304    0.5895 C   0  0  0  0  0  0  0  0  0  0  0  0
   98.7723   -2.7274    0.4736 C   0  0  0  0  0  0  0  0  0  0  0  0
   99.0789   -1.4112    0.3088 N   0  0  0  0  0  0  0  0  0  0  0  0
   97.5023   -3.2866    0.5192 C   0  0  0  0  0  0  0  0  0  0  0  0
   96.2778   -2.6479    0.4103 C   0  0  0  0  0  0  0  0  0  0  0  0
   96.0598   -1.3218    0.2349 N   0  0  0  0  0  0  0  0  0  0  0  0
   94.9256   -4.4280    0.6112 H   0  0  0  0  0  0  0  0  0  0  0  0
   92.9808   -2.5729    0.3347 H   0  0  0  0  0  0  0  0  0  0  0  0
   93.0525    2.7524   -0.3559 H   0  0  0  0  0  0  0  0  0  0  0  0
   95.0347    4.5384   -0.5505 H   0  0  0  0  0  0  0  0  0  0  0  0
   96.6997    0.6920   -0.0128 H   0  0  0  0  0  0  0  0  0  0  0  0
   97.6583    4.4071   -0.4747 H   0  0  0  0  0  0  0  0  0  0  0  0
  100.1997    4.4767   -0.4255 H   0  0  0  0  0  0  0  0  0  0  0  0
  102.1450    2.6218   -0.1495 H   0  0  0  0  0  0  0  0  0  0  0  0
  102.0733   -2.7044    0.5347 H   0  0  0  0  0  0  0  0  0  0  0  0
  100.0909   -4.4902    0.7297 H   0  0  0  0  0  0  0  0  0  0  0  0
   98.4257   -0.6437    0.1957 H   0  0  0  0  0  0  0  0  0  0  0  0
   97.4676   -4.3589    0.6571 H   0  0  0  0  0  0  0  0  0  0  0  0
  1  2  2  0  0  0  0
  2  3  1  0  0  0  0
  3  4  4  0  0  0  0
  4  5  4  0  0  0  0
  5  6  4  0  0  0  0
  6  7  2  0  0  0  0
  7  8  4  0  0  0  0
  5  9  4  0  0  0  0
  8  9  4  0  0  0  0
  8 10  4  0  0  0  0
 10 11  4  0  0  0  0
 11 12  1  0  0  0  0
 12 13  2  0  0  0  0
 13 14  1  0  0  0  0
 11 15  4  0  0  0  0
 14 15  4  0  0  0  0
 14 16  4  0  0  0  0
 16 17  4  0  0  0  0
 17 18  4  0  0  0  0
 18 19  2  0  0  0  0
 19 20  4  0  0  0  0
 17 21  4  0  0  0  0
 20 21  4  0  0  0  0
 20 22  4  0  0  0  0
  1 23  1  0  0  0  0
 22 23  4  0  0  0  0
  3 24  4  0  0  0  0
 23 24  4  0  0  0  0
  1 25  1  0  0  0  0
  2 26  1  0  0  0  0
  6 27  1  0  0  0  0
  7 28  1  0  0  0  0
  9 29  1  0  0  0  0
 10 30  1  0  0  0  0
 12 31  1  0  0  0  0
 13 32  1  0  0  0  0
 16 33  1  0  0  0  0
 18 34  1  0  0  0  0
 19 35  1  0  0  0  0
 21 36  1  0  0  0  0
 22 37  1  0  0  0  0
 38 39  2  0  0  0  0
 39 40  1  0  0  0  0
 40 41  4  0  0  0  0
 41 42  4  0  0  0  0
 42 43  4  0  0  0  0
 43 44  2  0  0  0  0
 44 45  4  0  0  0  0
 42 46  4  0  0  0  0
 45 46  4  0  0  0  0
 45 47  4  0  0  0  0
 47 48  4  0  0  0  0
 48 49  1  0  0  0  0
 49 50  2  0  0  0  0
 50 51  1  0  0  0  0
 48 52  4  0  0  0  0
 51 52  4  0  0  0  0
 51 53  4  0  0  0  0
 53 54  4  0  0  0  0
 54 55  4  0  0  0  0
 55 56  2  0  0  0  0
 56 57  4  0  0  0  0
 54 58  4  0  0  0  0
 57 58  4  0  0  0  0
 57 59  4  0  0  0  0
 38 60  1  0  0  0  0
 59 60  4  0  0  0  0
 40 61  4  0  0  0  0
 60 61  4  0  0  0  0
 38 62  1  0  0  0  0
 39 63  1  0  0  0  0
 43 64  1  0  0  0  0
 44 65  1  0  0  0  0
 46 66  1  0  0  0  0
 47 67  1  0  0  0  0
 49 68  1  0  0  0  0
 50 69  1  0  0  0  0
 53 70  1  0  0  0  0
 55 71  1  0  0  0  0
 56 72  1  0  0  0  0
 58 73  1  0  0  0  0
 59 74  1  0  0  0  0
  4 75  1  0  0  0  0
 75 76  3  0  0  0  0
 76 77  4  0  0  0  0
 77 78  3  0  0  0  0
 78 79  4  0  0  0  0
 79 80  3  0  0  0  0
 81 82  3  0  0  0  0
 82 83  4  0  0  0  0
 83 84  3  0  0  0  0
 84 85  4  0  0  0  0
 85 86  3  0  0  0  0
 87 88  3  0  0  0  0
 88 89  4  0  0  0  0
 89 90  3  0  0  0  0
 90 91  4  0  0  0  0
 91 92  3  0  0  0  0
 93 94  3  0  0  0  0
 94 95  4  0  0  0  0
 95 96  3  0  0  0  0
 96 97  4  0  0  0  0
 97 98  3  0  0  0  0
 99100  3  0  0  0  0
100101  4  0  0  0  0
101102  3  0  0  0  0
102103  4  0  0  0  0
 41104  1  0  0  0  0
103104  3  0  0  0  0
105106  2  0  0  0  0
106107  1  0  0  0  0
 80108  1  0  0  0  0
107108  4  0  0  0  0
108109  4  0  0  0  0
109110  4  0  0  0  0
110111  2  0  0  0  0
111112  4  0  0  0  0
109113  4  0  0  0  0
112113  4  0  0  0  0
112114  4  0  0  0  0
114115  4  0  0  0  0
115116  1  0  0  0  0
116117  2  0  0  0  0
117118  1  0  0  0  0
115119  4  0  0  0  0
118119  4  0  0  0  0
 81120  1  0  0  0  0
118120  4  0  0  0  0
120121  4  0  0  0  0
121122  4  0  0  0  0
122123  2  0  0  0  0
123124  4  0  0  0  0
121125  4  0  0  0  0
124125  4  0  0  0  0
124126  4  0  0  0  0
105127  1  0  0  0  0
126127  4  0  0  0  0
107128  4  0  0  0  0
127128  4  0  0  0  0
105129  1  0  0  0  0
106130  1  0  0  0  0
110131  1  0  0  0  0
111132  1  0  0  0  0
113133  1  0  0  0  0
114134  1  0  0  0  0
116135  1  0  0  0  0
117136  1  0  0  0  0
122137  1  0  0  0  0
123138  1  0  0  0  0
125139  1  0  0  0  0
126140  1  0  0  0  0
141142  2  0  0  0  0
142143  1  0  0  0  0
 86144  4  0  0  0  0
143144  4  0  0  0  0
144145  4  0  0  0  0
145146  4  0  0  0  0
146147  2  0  0  0  0
147148  4  0  0  0  0
145149  4  0  0  0  0
148149  4  0  0  0  0
148150  4  0  0  0  0
150151  4  0  0  0  0
151152  1  0  0  0  0
152153  2  0  0  0  0
153154  1  0  0  0  0
151155  4  0  0  0  0
154155  4  0  0  0  0
 87156  4  0  0  0  0
154156  4  0  0  0  0
156157  4  0  0  0  0
157158  4  0  0  0  0
158159  2  0  0  0  0
159160  4  0  0  0  0
157161  4  0  0  0  0
160161  4  0  0  0  0
160162  4  0  0  0  0
141163  1  0  0  0  0
162163  4  0  0  0  0
143164  4  0  0  0  0
163164  4  0  0  0  0
141165  1  0  0  0  0
142166  1  0  0  0  0
146167  1  0  0  0  0
147168  1  0  0  0  0
149169  1  0  0  0  0
150170  1  0  0  0  0
152171  1  0  0  0  0
153172  1  0  0  0  0
158173  1  0  0  0  0
159174  1  0  0  0  0
161175  1  0  0  0  0
162176  1  0  0  0  0
177178  2  0  0  0  0
178179  1  0  0  0  0
 92180  4  0  0  0  0
179180  4  0  0  0  0
180181  4  0  0  0  0
181182  4  0  0  0  0
182183  2  0  0  0  0
183184  4  0  0  0  0
181185  4  0  0  0  0
184185  4  0  0  0  0
184186  4  0  0  0  0
186187  4  0  0  0  0
187188  1  0  0  0  0
188189  2  0  0  0  0
189190  1  0  0  0  0
187191  4  0  0  0  0
190191  4  0  0  0  0
 93192  4  0  0  0  0
190192  4  0  0  0  0
192193  4  0  0  0  0
193194  4  0  0  0  0
194195  2  0  0  0  0
195196  4  0  0  0  0
193197  4  0  0  0  0
196197  4  0  0  0  0
196198  4  0  0  0  0
177199  1  0  0  0  0
198199  4  0  0  0  0
179200  4  0  0  0  0
199200  4  0  0  0  0
177201  1  0  0  0  0
178202  1  0  0  0  0
182203  1  0  0  0  0
183204  1  0  0  0  0
185205  1  0  0  0  0
186206  1  0  0  0  0
188207  1  0  0  0  0
189208  1  0  0  0  0
194209  1  0  0  0  0
195210  1  0  0  0  0
197211  1  0  0  0  0
198212  1  0  0  0  0
213214  2  0  0  0  0
214215  1  0  0  0  0
 98216  1  0  0  0  0
215216  4  0  0  0  0
216217  4  0  0  0  0
217218  4  0  0  0  0
218219  2  0  0  0  0
219220  4  0  0  0  0
217221  4  0  0  0  0
220221  4  0  0  0  0
220222  4  0  0  0  0
222223  4  0  0  0  0
223224  1  0  0  0  0
224225  2  0  0  0  0
225226  1  0  0  0  0
223227  4  0  0  0  0
226227  4  0  0  0  0
 99228  1  0  0  0  0
226228  4  0  0  0  0
228229  4  0  0  0  0
229230  4  0  0  0  0
230231  2  0  0  0  0
231232  4  0  0  0  0
229233  4  0  0  0  0
232233  4  0  0  0  0
232234  4  0  0  0  0
213235  1  0  0  0  0
234235  4  0  0  0  0
215236  4  0  0  0  0
235236  4  0  0  0  0
213237  1  0  0  0  0
214238  1  0  0  0  0
218239  1  0  0  0  0
219240  1  0  0  0  0
221241  1  0  0  0  0
222242  1  0  0  0  0
224243  1  0  0  0  0
225244  1  0  0  0  0
230245  1  0  0  0  0
231246  1  0  0  0  0
233247  1  0  0  0  0
234248  1  0  0  0  0
M  END
