
  xtb     11202115543D
 xtb: 6.4.1 (bd6e46d)
 78 93  0     0  0            999 V2000
    6.6695   -0.0532    0.0075 Co  0  0  0  0  0  0  0  0  0  0  0  0
    9.1221   -3.4941    0.0924 C   0  0  0  0  0  0  0  0  0  0  0  0
   10.0857   -2.5459    0.1192 C   0  0  0  0  0  0  0  0  0  0  0  0
    9.4116   -1.2841    0.0815 C   0  0  0  0  0  0  0  0  0  0  0  0
   10.0920   -0.0647    0.0699 C   0  0  0  0  0  0  0  0  0  0  0  0
    9.4209    1.1595    0.0333 C   0  0  0  0  0  0  0  0  0  0  0  0
   10.1047    2.4166    0.0152 C   0  0  0  0  0  0  0  0  0  0  0  0
    9.1473    3.3711   -0.0081 C   0  0  0  0  0  0  0  0  0  0  0  0
    7.8901    2.6867   -0.0029 C   0  0  0  0  0  0  0  0  0  0  0  0
    8.0689    1.3281    0.0184 N   0  0  0  0  0  0  0  0  0  0  0  0
    6.6785    3.3428   -0.0034 C   0  0  0  0  0  0  0  0  0  0  0  0
    5.4638    2.6927    0.0075 C   0  0  0  0  0  0  0  0  0  0  0  0
    4.2066    3.3819    0.0187 C   0  0  0  0  0  0  0  0  0  0  0  0
    3.2480    2.4307    0.0159 C   0  0  0  0  0  0  0  0  0  0  0  0
    3.9272    1.1678    0.0003 C   0  0  0  0  0  0  0  0  0  0  0  0
    5.2832    1.3377    0.0010 N   0  0  0  0  0  0  0  0  0  0  0  0
    3.2669   -0.0416   -0.0310 C   0  0  0  0  0  0  0  0  0  0  0  0
    3.9197   -1.2552   -0.0563 C   0  0  0  0  0  0  0  0  0  0  0  0
    3.2328   -2.5131   -0.1032 C   0  0  0  0  0  0  0  0  0  0  0  0
    4.1852   -3.4707   -0.1042 C   0  0  0  0  0  0  0  0  0  0  0  0
    5.4463   -2.7904   -0.0549 C   0  0  0  0  0  0  0  0  0  0  0  0
    5.2743   -1.4343   -0.0323 N   0  0  0  0  0  0  0  0  0  0  0  0
    6.6559   -3.4488   -0.0153 C   0  0  0  0  0  0  0  0  0  0  0  0
    7.8708   -2.8010    0.0401 C   0  0  0  0  0  0  0  0  0  0  0  0
    8.0590   -1.4437    0.0403 N   0  0  0  0  0  0  0  0  0  0  0  0
    9.2265   -4.5616    0.1056 H   0  0  0  0  0  0  0  0  0  0  0  0
   11.1511   -2.6644    0.1590 H   0  0  0  0  0  0  0  0  0  0  0  0
   11.1715    2.5281    0.0213 H   0  0  0  0  0  0  0  0  0  0  0  0
    9.2593    4.4377   -0.0258 H   0  0  0  0  0  0  0  0  0  0  0  0
    6.6826    4.4222   -0.0098 H   0  0  0  0  0  0  0  0  0  0  0  0
    4.0999    4.4494    0.0273 H   0  0  0  0  0  0  0  0  0  0  0  0
    2.1814    2.5458    0.0214 H   0  0  0  0  0  0  0  0  0  0  0  0
    2.1877   -0.0381   -0.0406 H   0  0  0  0  0  0  0  0  0  0  0  0
    2.1657   -2.6209   -0.1311 H   0  0  0  0  0  0  0  0  0  0  0  0
    4.0717   -4.5371   -0.1327 H   0  0  0  0  0  0  0  0  0  0  0  0
    6.6528   -4.5282   -0.0249 H   0  0  0  0  0  0  0  0  0  0  0  0
   11.4890   -0.0679    0.0851 C   0  0  0  0  0  0  0  0  0  0  0  0
   12.7084   -0.0656    0.0865 C   0  0  0  0  0  0  0  0  0  0  0  0
   14.0451   -0.0581    0.0889 C   0  0  0  0  0  0  0  0  0  0  0  0
   15.2689   -0.0466    0.0851 C   0  0  0  0  0  0  0  0  0  0  0  0
   16.6055   -0.0300    0.0882 C   0  0  0  0  0  0  0  0  0  0  0  0
   17.8248   -0.0120    0.0988 C   0  0  0  0  0  0  0  0  0  0  0  0
   22.6273    0.0543   -0.0206 Co  0  0  0  0  0  0  0  0  0  0  0  0
   20.1497    3.4366    0.3965 C   0  0  0  0  0  0  0  0  0  0  0  0
   19.1952    2.4864    0.2706 C   0  0  0  0  0  0  0  0  0  0  0  0
   19.8824    1.2376    0.1437 C   0  0  0  0  0  0  0  0  0  0  0  0
   19.2212    0.0068    0.1106 C   0  0  0  0  0  0  0  0  0  0  0  0
   19.9161   -1.2042    0.1699 C   0  0  0  0  0  0  0  0  0  0  0  0
   19.2656   -2.4690    0.3280 C   0  0  0  0  0  0  0  0  0  0  0  0
   20.2478   -3.3935    0.4311 C   0  0  0  0  0  0  0  0  0  0  0  0
   21.4866   -2.6883    0.3007 C   0  0  0  0  0  0  0  0  0  0  0  0
   21.2710   -1.3431    0.1537 N   0  0  0  0  0  0  0  0  0  0  0  0
   22.7121   -3.3174    0.2402 C   0  0  0  0  0  0  0  0  0  0  0  0
   23.8857   -2.6544   -0.0495 C   0  0  0  0  0  0  0  0  0  0  0  0
   25.1317   -3.3233   -0.2863 C   0  0  0  0  0  0  0  0  0  0  0  0
   26.0222   -2.3669   -0.6292 C   0  0  0  0  0  0  0  0  0  0  0  0
   25.3237   -1.1162   -0.5628 C   0  0  0  0  0  0  0  0  0  0  0  0
   24.0147   -1.3044   -0.2187 N   0  0  0  0  0  0  0  0  0  0  0  0
   25.9398    0.1058   -0.7336 C   0  0  0  0  0  0  0  0  0  0  0  0
   25.3003    1.3049   -0.4978 C   0  0  0  0  0  0  0  0  0  0  0  0
   25.9745    2.5706   -0.4932 C   0  0  0  0  0  0  0  0  0  0  0  0
   25.0570    3.4938   -0.1309 C   0  0  0  0  0  0  0  0  0  0  0  0
   23.8197    2.7912    0.0462 C   0  0  0  0  0  0  0  0  0  0  0  0
   23.9821    1.4512   -0.1696 N   0  0  0  0  0  0  0  0  0  0  0  0
   22.6212    3.4211    0.3061 C   0  0  0  0  0  0  0  0  0  0  0  0
   21.4096    2.7629    0.3086 C   0  0  0  0  0  0  0  0  0  0  0  0
   21.2333    1.4127    0.1571 N   0  0  0  0  0  0  0  0  0  0  0  0
   20.0330    4.4956    0.5209 H   0  0  0  0  0  0  0  0  0  0  0  0
   18.1279    2.5947    0.2772 H   0  0  0  0  0  0  0  0  0  0  0  0
   18.2023   -2.6045    0.3678 H   0  0  0  0  0  0  0  0  0  0  0  0
   20.1621   -4.4543    0.5650 H   0  0  0  0  0  0  0  0  0  0  0  0
   22.7437   -4.3894    0.3623 H   0  0  0  0  0  0  0  0  0  0  0  0
   25.2758   -4.3836   -0.2097 H   0  0  0  0  0  0  0  0  0  0  0  0
   27.0583   -2.4705   -0.8874 H   0  0  0  0  0  0  0  0  0  0  0  0
   26.9861    0.1230   -0.9979 H   0  0  0  0  0  0  0  0  0  0  0  0
   27.0137    2.7056   -0.7228 H   0  0  0  0  0  0  0  0  0  0  0  0
   25.1770    4.5526   -0.0067 H   0  0  0  0  0  0  0  0  0  0  0  0
   22.6230    4.4910    0.4496 H   0  0  0  0  0  0  0  0  0  0  0  0
  2  3  2  0  0  0  0
  3  4  1  0  0  0  0
  4  5  4  0  0  0  0
  5  6  4  0  0  0  0
  6  7  1  0  0  0  0
  7  8  2  0  0  0  0
  8  9  1  0  0  0  0
  1 10  1  0  0  0  0
  6 10  4  0  0  0  0
  9 10  4  0  0  0  0
  9 11  4  0  0  0  0
 11 12  4  0  0  0  0
 12 13  1  0  0  0  0
 13 14  2  0  0  0  0
 14 15  1  0  0  0  0
  1 16  1  0  0  0  0
 12 16  4  0  0  0  0
 15 16  4  0  0  0  0
 15 17  4  0  0  0  0
 17 18  4  0  0  0  0
 18 19  1  0  0  0  0
 19 20  2  0  0  0  0
 20 21  1  0  0  0  0
  1 22  1  0  0  0  0
 18 22  4  0  0  0  0
 21 22  4  0  0  0  0
 21 23  4  0  0  0  0
  2 24  1  0  0  0  0
 23 24  4  0  0  0  0
  1 25  1  0  0  0  0
  4 25  4  0  0  0  0
 24 25  4  0  0  0  0
  2 26  1  0  0  0  0
  3 27  1  0  0  0  0
  7 28  1  0  0  0  0
  8 29  1  0  0  0  0
 11 30  1  0  0  0  0
 13 31  1  0  0  0  0
 14 32  1  0  0  0  0
 17 33  1  0  0  0  0
 19 34  1  0  0  0  0
 20 35  1  0  0  0  0
 23 36  1  0  0  0  0
  5 37  1  0  0  0  0
 37 38  3  0  0  0  0
 38 39  4  0  0  0  0
 39 40  3  0  0  0  0
 40 41  4  0  0  0  0
 41 42  3  0  0  0  0
 44 45  2  0  0  0  0
 45 46  1  0  0  0  0
 42 47  1  0  0  0  0
 46 47  4  0  0  0  0
 47 48  4  0  0  0  0
 48 49  1  0  0  0  0
 49 50  2  0  0  0  0
 50 51  1  0  0  0  0
 43 52  1  0  0  0  0
 48 52  4  0  0  0  0
 51 52  4  0  0  0  0
 51 53  4  0  0  0  0
 53 54  4  0  0  0  0
 54 55  1  0  0  0  0
 55 56  2  0  0  0  0
 56 57  1  0  0  0  0
 43 58  1  0  0  0  0
 54 58  4  0  0  0  0
 57 58  4  0  0  0  0
 57 59  4  0  0  0  0
 59 60  4  0  0  0  0
 60 61  1  0  0  0  0
 61 62  2  0  0  0  0
 62 63  1  0  0  0  0
 43 64  1  0  0  0  0
 60 64  4  0  0  0  0
 63 64  4  0  0  0  0
 63 65  4  0  0  0  0
 44 66  1  0  0  0  0
 65 66  4  0  0  0  0
 43 67  1  0  0  0  0
 46 67  4  0  0  0  0
 66 67  4  0  0  0  0
 44 68  1  0  0  0  0
 45 69  1  0  0  0  0
 49 70  1  0  0  0  0
 50 71  1  0  0  0  0
 53 72  1  0  0  0  0
 55 73  1  0  0  0  0
 56 74  1  0  0  0  0
 59 75  1  0  0  0  0
 61 76  1  0  0  0  0
 62 77  1  0  0  0  0
 65 78  1  0  0  0  0
M  END
