242

Cu 29.769911 -0.000104 -0.011775
C 32.299812 -3.422982 0.019189
C 33.251967 -2.459956 0.018145
C 32.562461 -1.201852 0.009228
C 33.209016 0.043227 0.006525
C 32.531623 1.271666 0.001045
C 33.189233 2.546677 0.003892
C 32.213175 3.485468 -0.001827
C 30.962570 2.781924 -0.008911
N 31.189705 1.440080 -0.006314
C 29.725773 3.401473 -0.020031
C 28.506104 2.748800 -0.030686
C 27.232919 3.416337 -0.046408
C 26.286634 2.449948 -0.053357
C 26.980537 1.190761 -0.041096
N 28.320507 1.404404 -0.028268
C 26.354197 -0.043173 -0.039900
C 27.011150 -1.261021 -0.025471
C 26.349052 -2.537287 -0.021151
C 27.319321 -3.479517 -0.006788
C 28.575362 -2.780092 -0.002834
N 28.356064 -1.440830 -0.013859
C 29.811126 -3.401704 0.008294
C 31.031890 -2.751083 0.010519
N 31.225193 -1.403912 0.004511
H 32.425278 -4.488324 0.024975
H 34.319077 -2.569309 0.023146
H 34.253289 2.682743 0.009797
H 32.311779 4.553654 -0.001639
H 29.712553 4.481889 -0.021934
H 27.104639 4.481612 -0.051534
H 25.218939 2.555784 -0.065363
H 25.274079 -0.056714 -0.049868
H 25.284355 -2.670029 -0.028112
H 27.217856 -4.547663 0.000336
H 29.825269 -4.482085 0.014800
Cu 109.842771 0.031835 -0.009331
C 107.320347 3.401098 0.624862
C 106.366024 2.456707 0.447760
C 107.052692 1.218247 0.217371
C 106.403434 -0.005462 -0.004275
C 107.078181 -1.215471 -0.224007
C 106.417868 -2.469426 -0.447059
C 107.391907 -3.393972 -0.621678
C 108.644057 -2.702642 -0.505586
N 108.419794 -1.382473 -0.262787
C 109.879444 -3.312328 -0.630980
C 111.100546 -2.670779 -0.526409
C 112.372216 -3.326911 -0.665140
C 113.320668 -2.377384 -0.497079
C 112.629633 -1.140049 -0.254870
N 111.289203 -1.349600 -0.280025
C 113.258698 0.071420 -0.027848
C 112.604338 1.267641 0.208310
C 113.269190 2.519918 0.446998
C 112.300917 3.446306 0.630489
C 111.043360 2.761311 0.503427
N 111.259781 1.445800 0.249652
C 109.808946 3.374332 0.621992
C 108.586738 2.737763 0.501364
N 108.390434 1.414031 0.253669
H 107.197253 4.448620 0.820543
H 105.299120 2.566669 0.468022
H 105.353553 -2.602349 -0.464040
H 107.291028 -4.444891 -0.811924
H 109.890190 -4.374728 -0.827621
H 112.498124 -4.373687 -0.864258
H 114.388069 -2.481506 -0.529310
H 114.338854 0.084042 -0.034425
H 114.334220 2.648826 0.467196
H 112.404667 4.494946 0.832654
H 109.797199 4.435774 0.823668
C 34.605717 0.059298 0.010708
C 35.825758 0.068823 0.009386
C 37.161901 0.076435 0.007428
C 38.386372 0.077994 0.004480
C 39.722362 0.076359 0.002432
C 40.942604 0.072375 -0.003852
C 50.624906 0.038742 -0.021595
C 51.845237 0.036776 -0.020563
C 53.180723 0.035219 -0.019850
C 54.405363 0.035078 -0.019615
C 55.740824 0.035016 -0.019597
C 56.961152 0.035566 -0.019617
C 66.638134 0.038041 -0.022210
C 67.858409 0.038640 -0.021829
C 69.193673 0.039402 -0.019879
C 70.418261 0.038550 -0.018134
C 71.753525 0.036257 -0.020225
C 72.973796 0.038579 -0.019820
C 82.650688 0.044356 -0.023296
C 83.871004 0.047637 -0.028108
C 85.206477 0.045936 -0.023218
C 86.431105 0.043654 -0.018704
C 87.766599 0.044545 -0.019853
C 88.986928 0.041455 -0.022982
C 98.669487 -0.013116 -0.017883
C 99.889694 -0.019518 -0.015817
C 101.225802 -0.023397 -0.013903
C 102.450241 -0.025765 -0.011326
C 103.786522 -0.023482 -0.007708
C 105.006538 -0.018404 -0.005524
Cu 45.784163 0.055031 -0.018646
C 43.284777 -3.367979 0.373234
C 42.321985 -2.420911 0.270375
C 42.997881 -1.163732 0.126684
C 42.338573 0.067712 -0.009375
C 43.006018 1.294097 -0.151226
C 42.338628 2.555899 -0.294269
C 43.307812 3.495427 -0.406025
C 44.563193 2.804931 -0.330181
N 44.346104 1.470290 -0.175874
C 45.795493 3.428578 -0.403868
C 47.023621 2.796550 -0.332203
C 48.283743 3.478315 -0.409099
C 49.246445 2.531653 -0.301332
C 48.570249 1.274383 -0.159412
N 47.231475 1.460106 -0.180604
C 49.229337 0.042949 -0.021876
C 48.562078 -1.184096 0.114719
C 49.229737 -2.446242 0.253108
C 48.260655 -3.386530 0.359418
C 47.005179 -2.695914 0.285829
N 47.222078 -1.360630 0.137021
C 45.772778 -3.319360 0.359165
C 44.544796 -2.686545 0.292368
N 44.336741 -1.349881 0.143098
H 43.171130 -4.428004 0.492657
H 41.256113 -2.540696 0.287465
H 41.273576 2.683527 -0.305540
H 43.201358 4.555864 -0.528205
H 45.799102 4.502228 -0.526997
H 48.397685 4.538257 -0.529103
H 50.312398 2.651760 -0.314375
H 50.294864 -2.573684 0.264656
H 48.367416 -4.447516 0.476734
H 45.769003 -4.393338 0.479392
Cu 61.799982 0.036751 -0.021537
C 59.312954 -3.396917 0.362612
C 58.347419 -2.453359 0.252995
C 59.019797 -1.193565 0.115389
C 58.356696 0.035934 -0.020060
C 59.019086 1.265736 -0.156365
C 58.346018 2.525145 -0.294019
C 59.311010 3.469056 -0.405349
C 60.569368 2.783478 -0.334992
N 60.358259 1.447546 -0.182538
C 61.799018 3.411324 -0.416275
C 63.029121 2.782644 -0.349884
C 64.287226 3.466716 -0.438082
C 65.252643 2.523130 -0.327594
C 64.579979 1.265542 -0.172092
N 63.240767 1.447676 -0.189997
C 65.242779 0.037703 -0.021601
C 64.580681 -1.190579 0.128374
C 65.254036 -2.447876 0.282948
C 64.289152 -3.392055 0.392950
C 63.030679 -2.708640 0.305265
N 63.241578 -1.373473 0.146162
C 61.800935 -3.338017 0.371593
C 60.570936 -2.710709 0.291573
N 60.359079 -1.374766 0.140215
H 59.202374 -4.457468 0.480473
H 57.281866 -2.577134 0.262013
H 57.280405 2.648436 -0.302039
H 59.199833 4.529473 -0.523930
H 61.798631 4.484656 -0.541984
H 64.398095 4.525956 -0.567027
H 66.318262 2.645551 -0.346685
H 66.319712 -2.569707 0.301917
H 64.400607 -4.451296 0.521299
H 61.801138 -4.411443 0.496475
Cu 77.811906 0.041498 -0.021877
C 75.325934 -3.391708 0.375297
C 74.360166 -2.448634 0.263522
C 75.032383 -1.189344 0.120252
C 74.369151 0.039450 -0.020105
C 75.030790 1.269103 -0.160615
C 74.356944 2.527565 -0.302924
C 75.321447 3.471803 -0.415678
C 76.580187 2.787270 -0.341816
N 76.369814 1.451650 -0.185838
C 77.809689 3.415297 -0.423585
C 79.039919 2.786984 -0.355846
C 80.297648 3.471338 -0.446423
C 81.263516 2.528378 -0.334625
C 80.591605 1.270852 -0.175707
N 79.252259 1.452443 -0.193225
C 81.255136 0.043669 -0.022513
C 80.593212 -1.184425 0.130308
C 81.266794 -2.441260 0.287551
C 80.302174 -3.385431 0.399842
C 79.043541 -2.702537 0.310909
N 79.254112 -1.367689 0.148524
C 77.814127 -3.332288 0.379937
C 76.583791 -2.705655 0.299940
N 76.371666 -1.370274 0.144176
H 75.215451 -4.451805 0.497309
H 73.294585 -2.572375 0.274747
H 73.291228 2.650032 -0.312903
H 75.209564 4.531766 -0.537471
H 77.809080 4.488359 -0.551555
H 80.407845 4.530341 -0.577793
H 82.329014 2.651191 -0.355066
H 82.332454 -2.562801 0.306860
H 80.413785 -4.444356 0.530610
H 77.814913 -4.405398 0.507531
Cu 93.827691 0.014225 -0.019929
C 91.320182 -3.400365 0.394522
C 90.359654 -2.451875 0.283554
C 91.038684 -1.197675 0.128839
C 90.382493 0.033857 -0.021331
C 91.052665 1.257839 -0.170312
C 90.387957 2.519737 -0.324397
C 91.359252 3.457259 -0.434874
C 92.613108 2.765253 -0.347763
N 92.393078 1.431730 -0.188129
C 93.846981 3.386321 -0.416464
C 95.073517 2.752049 -0.337338
C 96.335106 3.431301 -0.411979
C 97.295753 2.483081 -0.300136
C 96.617008 1.227277 -0.157620
N 95.278520 1.415604 -0.182240
C 97.273369 -0.005426 -0.019160
C 96.602996 -1.230657 0.118219
C 97.267386 -2.494177 0.260278
C 96.295978 -3.431455 0.371421
C 95.042237 -2.737829 0.296786
N 95.262467 -1.403763 0.142150
C 93.808506 -3.357962 0.375981
C 92.581847 -2.722733 0.307428
N 92.377030 -1.386789 0.147609
H 91.203823 -4.459021 0.523098
H 89.293448 -2.568910 0.302032
H 89.323136 2.648836 -0.342938
H 91.254978 4.517206 -0.563100
H 93.853263 4.459573 -0.542907
H 96.451152 4.490772 -0.533802
H 98.361916 2.601133 -0.311196
H 98.332133 -2.624345 0.271516
H 96.399911 -4.492250 0.492763
H 93.802448 -4.431221 0.502364
