76

Zn 7.930214 -0.057642 0.048503
C 10.425843 -3.519565 0.116662
C 11.388708 -2.566793 0.149654
C 10.713156 -1.300724 0.134744
C 11.364382 -0.056840 0.160842
C 10.711689 1.186732 0.149784
C 11.386172 2.453119 0.181019
C 10.422630 3.405433 0.155728
C 9.163110 2.718546 0.108601
N 9.370837 1.371660 0.107194
C 7.929270 3.346074 0.066943
C 6.696647 2.716911 0.015631
C 5.431422 3.398466 -0.031311
C 4.475160 2.441789 -0.074189
C 5.155374 1.174737 -0.052732
N 6.498377 1.372689 0.001035
C 4.524197 -0.058173 -0.080273
C 5.156096 -1.290866 -0.057225
C 4.476601 -2.558165 -0.083015
C 5.433612 -3.514441 -0.047902
C 6.698584 -2.832433 -0.001747
N 6.499323 -1.488178 -0.007580
C 7.931891 -3.461115 0.039219
C 9.165595 -2.833252 0.080936
N 9.372275 -1.486306 0.093214
H 10.543243 -4.586073 0.115375
H 12.453850 -2.691380 0.181061
H 12.451121 2.578354 0.216958
H 10.539333 4.471998 0.166725
H 7.929860 4.427277 0.073257
H 5.310793 4.464863 -0.030851
H 3.409674 2.563021 -0.116303
H 3.443971 -0.058303 -0.122332
H 3.411044 -2.679681 -0.122320
H 5.313370 -4.580868 -0.052617
H 7.932837 -4.542343 0.036776
C 12.762719 -0.054222 0.193179
C 13.980572 -0.043726 0.214000
C 15.322717 -0.033257 0.218093
C 16.540655 -0.015339 0.209576
Zn 21.366608 0.059872 -0.053177
C 18.826303 3.482316 0.170213
C 17.878395 2.514963 0.210389
C 18.570922 1.259624 0.144919
C 17.938483 0.005892 0.166296
C 18.609652 -1.227405 0.136727
C 17.956353 -2.503858 0.193412
C 18.933675 -3.441195 0.144552
C 20.179987 -2.735063 0.053286
N 19.951375 -1.391577 0.054694
C 21.421053 -3.343172 -0.036819
C 22.639571 -2.694792 -0.148630
C 23.911177 -3.356537 -0.262529
C 24.848510 -2.385095 -0.358139
C 24.150779 -1.128794 -0.299486
N 22.815890 -1.347582 -0.174100
C 24.760771 0.113834 -0.355535
C 24.112939 1.336427 -0.286187
C 24.771668 2.614155 -0.330996
C 23.804587 3.555179 -0.227201
C 22.553953 2.853457 -0.122430
N 22.771706 1.512661 -0.160387
C 21.315655 3.462875 -0.007567
C 20.094014 2.815761 0.075128
N 19.907025 1.465897 0.065605
H 18.694132 4.546717 0.199446
H 16.813174 2.622488 0.279562
H 16.895110 -2.645209 0.263325
H 18.834137 -4.509340 0.165211
H 21.438067 -4.424221 -0.027246
H 24.047871 -4.420955 -0.268249
H 25.911878 -2.489574 -0.458186
H 25.836924 0.130742 -0.456922
H 25.831490 2.752251 -0.428042
H 23.908841 4.623269 -0.222154
H 21.299201 4.543778 0.011544
