
  xtb     11212119083D
 xtb: 6.4.1 (bd6e46d)
 76 91  0     0  0            999 V2000
    7.9302   -0.0576    0.0485 Zn  0  0  0  0  0  0  0  0  0  0  0  0
   10.4258   -3.5196    0.1167 C   0  0  0  0  0  0  0  0  0  0  0  0
   11.3887   -2.5668    0.1497 C   0  0  0  0  0  0  0  0  0  0  0  0
   10.7132   -1.3007    0.1347 C   0  0  0  0  0  0  0  0  0  0  0  0
   11.3644   -0.0568    0.1608 C   0  0  0  0  0  0  0  0  0  0  0  0
   10.7117    1.1867    0.1498 C   0  0  0  0  0  0  0  0  0  0  0  0
   11.3862    2.4531    0.1810 C   0  0  0  0  0  0  0  0  0  0  0  0
   10.4226    3.4054    0.1557 C   0  0  0  0  0  0  0  0  0  0  0  0
    9.1631    2.7185    0.1086 C   0  0  0  0  0  0  0  0  0  0  0  0
    9.3708    1.3717    0.1072 N   0  0  0  0  0  0  0  0  0  0  0  0
    7.9293    3.3461    0.0669 C   0  0  0  0  0  0  0  0  0  0  0  0
    6.6966    2.7169    0.0156 C   0  0  0  0  0  0  0  0  0  0  0  0
    5.4314    3.3985   -0.0313 C   0  0  0  0  0  0  0  0  0  0  0  0
    4.4752    2.4418   -0.0742 C   0  0  0  0  0  0  0  0  0  0  0  0
    5.1554    1.1747   -0.0527 C   0  0  0  0  0  0  0  0  0  0  0  0
    6.4984    1.3727    0.0010 N   0  0  0  0  0  0  0  0  0  0  0  0
    4.5242   -0.0582   -0.0803 C   0  0  0  0  0  0  0  0  0  0  0  0
    5.1561   -1.2909   -0.0572 C   0  0  0  0  0  0  0  0  0  0  0  0
    4.4766   -2.5582   -0.0830 C   0  0  0  0  0  0  0  0  0  0  0  0
    5.4336   -3.5144   -0.0479 C   0  0  0  0  0  0  0  0  0  0  0  0
    6.6986   -2.8324   -0.0017 C   0  0  0  0  0  0  0  0  0  0  0  0
    6.4993   -1.4882   -0.0076 N   0  0  0  0  0  0  0  0  0  0  0  0
    7.9319   -3.4611    0.0392 C   0  0  0  0  0  0  0  0  0  0  0  0
    9.1656   -2.8333    0.0809 C   0  0  0  0  0  0  0  0  0  0  0  0
    9.3723   -1.4863    0.0932 N   0  0  0  0  0  0  0  0  0  0  0  0
   10.5432   -4.5861    0.1154 H   0  0  0  0  0  0  0  0  0  0  0  0
   12.4538   -2.6914    0.1811 H   0  0  0  0  0  0  0  0  0  0  0  0
   12.4511    2.5784    0.2170 H   0  0  0  0  0  0  0  0  0  0  0  0
   10.5393    4.4720    0.1667 H   0  0  0  0  0  0  0  0  0  0  0  0
    7.9299    4.4273    0.0733 H   0  0  0  0  0  0  0  0  0  0  0  0
    5.3108    4.4649   -0.0309 H   0  0  0  0  0  0  0  0  0  0  0  0
    3.4097    2.5630   -0.1163 H   0  0  0  0  0  0  0  0  0  0  0  0
    3.4440   -0.0583   -0.1223 H   0  0  0  0  0  0  0  0  0  0  0  0
    3.4110   -2.6797   -0.1223 H   0  0  0  0  0  0  0  0  0  0  0  0
    5.3134   -4.5809   -0.0526 H   0  0  0  0  0  0  0  0  0  0  0  0
    7.9328   -4.5423    0.0368 H   0  0  0  0  0  0  0  0  0  0  0  0
   12.7627   -0.0542    0.1932 C   0  0  0  0  0  0  0  0  0  0  0  0
   13.9806   -0.0437    0.2140 C   0  0  0  0  0  0  0  0  0  0  0  0
   15.3227   -0.0333    0.2181 C   0  0  0  0  0  0  0  0  0  0  0  0
   16.5407   -0.0153    0.2096 C   0  0  0  0  0  0  0  0  0  0  0  0
   21.3666    0.0599   -0.0532 Zn  0  0  0  0  0  0  0  0  0  0  0  0
   18.8263    3.4823    0.1702 C   0  0  0  0  0  0  0  0  0  0  0  0
   17.8784    2.5150    0.2104 C   0  0  0  0  0  0  0  0  0  0  0  0
   18.5709    1.2596    0.1449 C   0  0  0  0  0  0  0  0  0  0  0  0
   17.9385    0.0059    0.1663 C   0  0  0  0  0  0  0  0  0  0  0  0
   18.6097   -1.2274    0.1367 C   0  0  0  0  0  0  0  0  0  0  0  0
   17.9564   -2.5039    0.1934 C   0  0  0  0  0  0  0  0  0  0  0  0
   18.9337   -3.4412    0.1446 C   0  0  0  0  0  0  0  0  0  0  0  0
   20.1800   -2.7351    0.0533 C   0  0  0  0  0  0  0  0  0  0  0  0
   19.9514   -1.3916    0.0547 N   0  0  0  0  0  0  0  0  0  0  0  0
   21.4211   -3.3432   -0.0368 C   0  0  0  0  0  0  0  0  0  0  0  0
   22.6396   -2.6948   -0.1486 C   0  0  0  0  0  0  0  0  0  0  0  0
   23.9112   -3.3565   -0.2625 C   0  0  0  0  0  0  0  0  0  0  0  0
   24.8485   -2.3851   -0.3581 C   0  0  0  0  0  0  0  0  0  0  0  0
   24.1508   -1.1288   -0.2995 C   0  0  0  0  0  0  0  0  0  0  0  0
   22.8159   -1.3476   -0.1741 N   0  0  0  0  0  0  0  0  0  0  0  0
   24.7608    0.1138   -0.3555 C   0  0  0  0  0  0  0  0  0  0  0  0
   24.1129    1.3364   -0.2862 C   0  0  0  0  0  0  0  0  0  0  0  0
   24.7717    2.6142   -0.3310 C   0  0  0  0  0  0  0  0  0  0  0  0
   23.8046    3.5552   -0.2272 C   0  0  0  0  0  0  0  0  0  0  0  0
   22.5540    2.8535   -0.1224 C   0  0  0  0  0  0  0  0  0  0  0  0
   22.7717    1.5127   -0.1604 N   0  0  0  0  0  0  0  0  0  0  0  0
   21.3157    3.4629   -0.0076 C   0  0  0  0  0  0  0  0  0  0  0  0
   20.0940    2.8158    0.0751 C   0  0  0  0  0  0  0  0  0  0  0  0
   19.9070    1.4659    0.0656 N   0  0  0  0  0  0  0  0  0  0  0  0
   18.6941    4.5467    0.1994 H   0  0  0  0  0  0  0  0  0  0  0  0
   16.8132    2.6225    0.2796 H   0  0  0  0  0  0  0  0  0  0  0  0
   16.8951   -2.6452    0.2633 H   0  0  0  0  0  0  0  0  0  0  0  0
   18.8341   -4.5093    0.1652 H   0  0  0  0  0  0  0  0  0  0  0  0
   21.4381   -4.4242   -0.0272 H   0  0  0  0  0  0  0  0  0  0  0  0
   24.0479   -4.4210   -0.2682 H   0  0  0  0  0  0  0  0  0  0  0  0
   25.9119   -2.4896   -0.4582 H   0  0  0  0  0  0  0  0  0  0  0  0
   25.8369    0.1307   -0.4569 H   0  0  0  0  0  0  0  0  0  0  0  0
   25.8315    2.7523   -0.4280 H   0  0  0  0  0  0  0  0  0  0  0  0
   23.9088    4.6233   -0.2222 H   0  0  0  0  0  0  0  0  0  0  0  0
   21.2992    4.5438    0.0115 H   0  0  0  0  0  0  0  0  0  0  0  0
  2  3  2  0  0  0  0
  3  4  1  0  0  0  0
  4  5  4  0  0  0  0
  5  6  4  0  0  0  0
  6  7  1  0  0  0  0
  7  8  2  0  0  0  0
  8  9  1  0  0  0  0
  1 10  1  0  0  0  0
  6 10  4  0  0  0  0
  9 10  4  0  0  0  0
  9 11  4  0  0  0  0
 11 12  4  0  0  0  0
 12 13  1  0  0  0  0
 13 14  2  0  0  0  0
 14 15  1  0  0  0  0
  1 16  1  0  0  0  0
 12 16  4  0  0  0  0
 15 16  4  0  0  0  0
 15 17  4  0  0  0  0
 17 18  4  0  0  0  0
 18 19  1  0  0  0  0
 19 20  2  0  0  0  0
 20 21  1  0  0  0  0
  1 22  1  0  0  0  0
 18 22  4  0  0  0  0
 21 22  4  0  0  0  0
 21 23  4  0  0  0  0
  2 24  1  0  0  0  0
 23 24  4  0  0  0  0
  1 25  1  0  0  0  0
  4 25  4  0  0  0  0
 24 25  4  0  0  0  0
  2 26  1  0  0  0  0
  3 27  1  0  0  0  0
  7 28  1  0  0  0  0
  8 29  1  0  0  0  0
 11 30  1  0  0  0  0
 13 31  1  0  0  0  0
 14 32  1  0  0  0  0
 17 33  1  0  0  0  0
 19 34  1  0  0  0  0
 20 35  1  0  0  0  0
 23 36  1  0  0  0  0
  5 37  1  0  0  0  0
 37 38  3  0  0  0  0
 38 39  4  0  0  0  0
 39 40  3  0  0  0  0
 42 43  2  0  0  0  0
 43 44  1  0  0  0  0
 40 45  1  0  0  0  0
 44 45  4  0  0  0  0
 45 46  4  0  0  0  0
 46 47  1  0  0  0  0
 47 48  2  0  0  0  0
 48 49  1  0  0  0  0
 41 50  1  0  0  0  0
 46 50  4  0  0  0  0
 49 50  4  0  0  0  0
 49 51  4  0  0  0  0
 51 52  4  0  0  0  0
 52 53  1  0  0  0  0
 53 54  2  0  0  0  0
 54 55  1  0  0  0  0
 41 56  1  0  0  0  0
 52 56  4  0  0  0  0
 55 56  4  0  0  0  0
 55 57  4  0  0  0  0
 57 58  4  0  0  0  0
 58 59  1  0  0  0  0
 59 60  2  0  0  0  0
 60 61  1  0  0  0  0
 41 62  1  0  0  0  0
 58 62  4  0  0  0  0
 61 62  4  0  0  0  0
 61 63  4  0  0  0  0
 42 64  1  0  0  0  0
 63 64  4  0  0  0  0
 41 65  1  0  0  0  0
 44 65  4  0  0  0  0
 64 65  4  0  0  0  0
 42 66  1  0  0  0  0
 43 67  1  0  0  0  0
 47 68  1  0  0  0  0
 48 69  1  0  0  0  0
 51 70  1  0  0  0  0
 53 71  1  0  0  0  0
 54 72  1  0  0  0  0
 57 73  1  0  0  0  0
 59 74  1  0  0  0  0
 60 75  1  0  0  0  0
 63 76  1  0  0  0  0
M  END
