193

Cu 28.915856 0.004493 -0.011634
C 31.438110 -3.423595 0.033968
C 32.392587 -2.462910 0.029243
C 31.706357 -1.203057 0.012579
C 32.356013 0.040216 0.000323
C 31.680967 1.269789 -0.013067
C 32.341028 2.543627 -0.021158
C 31.366843 3.484355 -0.027555
C 30.114708 2.783233 -0.024316
N 30.339268 1.440993 -0.015777
C 28.879125 3.405444 -0.029261
C 27.657735 2.755846 -0.030426
C 26.386073 3.426499 -0.038745
C 25.437418 2.462401 -0.041617
C 26.128354 1.201521 -0.034286
N 27.468857 1.411928 -0.027137
C 25.499203 -0.031044 -0.035091
C 26.153683 -1.250310 -0.024937
C 25.489036 -2.525272 -0.023953
C 26.457447 -3.469428 -0.008959
C 27.714889 -2.772473 -0.001332
N 27.498223 -1.432796 -0.011826
C 28.949457 -3.396464 0.014980
C 30.171791 -2.748649 0.019435
N 30.368534 -1.402068 0.007750
H 31.560780 -4.489298 0.045461
H 33.459506 -2.574220 0.035979
H 33.405460 2.676985 -0.020938
H 31.467419 4.552436 -0.034145
H 28.868342 4.485903 -0.033867
H 26.260248 4.492105 -0.042249
H 24.369918 2.570852 -0.047840
H 24.419030 -0.042230 -0.043316
H 24.424045 -2.655915 -0.033393
H 26.353751 -4.537414 -0.003606
H 28.961152 -4.476884 0.023923
Cu 82.780880 0.038026 -0.009282
C 80.265940 3.414229 0.617107
C 79.309391 2.471182 0.444982
C 79.992978 1.230834 0.215088
C 79.340711 0.008185 -0.002600
C 80.012875 -1.203437 -0.220392
C 79.350063 -2.456087 -0.444043
C 80.322201 -3.382971 -0.616707
C 81.575877 -2.694559 -0.498812
N 81.354235 -1.373675 -0.257768
C 82.810107 -3.307945 -0.618662
C 84.032900 -2.669933 -0.511405
C 85.303087 -3.330798 -0.641392
C 86.253844 -2.383202 -0.475376
C 85.565693 -1.142239 -0.243544
N 84.224742 -1.348035 -0.271446
C 86.197555 0.069476 -0.025477
C 85.545767 1.269281 0.199720
C 86.213219 2.522274 0.427344
C 85.246856 3.451808 0.605016
C 83.987853 2.767984 0.485579
N 84.201601 1.450294 0.241061
C 82.754620 3.383359 0.604624
C 81.530869 2.748250 0.491126
N 81.331291 1.424289 0.247519
H 80.145528 4.462410 0.811321
H 78.242701 2.582352 0.469054
H 78.285361 -2.585861 -0.463059
H 80.219332 -4.433779 -0.806879
H 82.818534 -4.370947 -0.812271
H 85.426611 -4.379159 -0.833779
H 87.321075 -2.490816 -0.502876
H 87.277757 0.079381 -0.030819
H 87.278521 2.649505 0.444621
H 85.352879 4.501890 0.798555
H 82.745224 4.445816 0.801137
C 33.753746 0.053682 0.001599
C 34.972120 0.063267 0.001231
C 36.314086 0.069370 0.000651
C 37.532591 0.071199 -0.002071
C 47.223462 0.047209 -0.018326
C 48.442262 0.046950 -0.018888
C 49.783852 0.045641 -0.020218
C 51.002660 0.046503 -0.020676
C 60.693710 0.039516 -0.021625
C 61.912514 0.035902 -0.019455
C 63.254100 0.033301 -0.016437
C 64.472904 0.032181 -0.019782
C 74.163756 -0.005571 -0.010042
C 75.382225 -0.007048 -0.006637
C 76.724399 -0.006843 -0.004018
C 77.942686 -0.001897 -0.002394
Cu 42.377985 0.059127 -0.013775
C 39.881566 -3.367054 0.364356
C 38.917192 -2.421474 0.262666
C 39.590865 -1.162326 0.125254
C 38.929690 0.068625 -0.005058
C 39.596709 1.295820 -0.139588
C 38.929238 2.558386 -0.275695
C 39.898256 3.498377 -0.384934
C 41.153897 2.807417 -0.314957
N 40.936918 1.472282 -0.165466
C 42.386113 3.431063 -0.391544
C 43.615262 2.800074 -0.325700
C 44.874175 3.483619 -0.407332
C 45.838655 2.538489 -0.302029
C 45.165162 1.280222 -0.156748
N 43.825841 1.464059 -0.174418
C 45.826649 0.050207 -0.017723
C 45.159286 -1.176596 0.121241
C 45.826618 -2.438624 0.262277
C 44.857510 -3.379107 0.366887
C 43.601964 -2.688879 0.289774
N 43.819072 -1.353619 0.141192
C 42.369697 -3.313472 0.358246
C 41.140595 -2.682899 0.288931
N 40.930174 -1.346238 0.143472
H 39.769632 -4.427753 0.479766
H 37.851425 -2.542670 0.277232
H 37.864075 2.685409 -0.284449
H 39.791606 4.559430 -0.502003
H 42.388804 4.504988 -0.512695
H 44.985980 4.543657 -0.528666
H 46.904384 2.659583 -0.318705
H 46.891753 -2.565196 0.276566
H 44.964072 -4.440031 0.485176
H 42.367008 -4.387720 0.476505
Cu 55.848197 0.043273 -0.019001
C 53.357827 -3.385064 0.378311
C 52.391712 -2.442442 0.265463
C 53.063042 -1.182938 0.121140
C 52.399456 0.045616 -0.020511
C 53.064811 1.273271 -0.161540
C 52.395295 2.533756 -0.305785
C 53.362775 3.475259 -0.416233
C 54.619505 2.787188 -0.339460
N 54.404709 1.452261 -0.184163
C 55.850646 3.412808 -0.417337
C 57.080862 2.784333 -0.348492
C 58.338586 3.469278 -0.436117
C 59.304674 2.526274 -0.326228
C 58.633309 1.268010 -0.171538
N 57.293687 1.449593 -0.188965
C 59.296916 0.040438 -0.022005
C 58.631622 -1.186157 0.128363
C 59.301107 -2.445372 0.283361
C 58.333606 -3.386512 0.396655
C 57.076897 -2.699555 0.310368
N 57.291723 -1.365411 0.148563
C 55.845754 -3.325953 0.381520
C 54.615533 -2.698721 0.302302
N 54.402668 -1.363651 0.145599
H 53.247822 -4.445134 0.501257
H 51.326160 -2.565990 0.276415
H 51.329904 2.658636 -0.318323
H 53.254327 4.535570 -0.538437
H 55.851433 4.486169 -0.543473
H 58.448631 4.528707 -0.564442
H 60.370234 2.648761 -0.345573
H 60.366477 -2.569802 0.300327
H 58.442042 -4.445931 0.526362
H 55.844970 -4.399048 0.509897
Cu 69.318259 0.012999 -0.018059
C 66.816610 -3.407729 0.373935
C 65.853651 -2.461115 0.268050
C 66.529164 -1.203950 0.122490
C 65.869721 0.026867 -0.019061
C 66.539064 1.252199 -0.161139
C 65.873724 2.514584 -0.308319
C 66.844306 3.453284 -0.415141
C 68.098775 2.761705 -0.332484
N 67.879556 1.427319 -0.179256
C 69.332014 3.384514 -0.399411
C 70.560110 2.752804 -0.322556
C 71.820252 3.435348 -0.394574
C 72.783140 2.489186 -0.284633
C 72.107459 1.231182 -0.146311
N 70.768373 1.416491 -0.171397
C 72.766414 -0.000454 -0.013006
C 72.097472 -1.226986 0.116995
C 72.763019 -2.490347 0.255624
C 71.792546 -3.429228 0.361085
C 70.537937 -2.736848 0.286407
N 70.756946 -1.401998 0.137672
C 69.304753 -3.358953 0.359989
C 68.076622 -2.726163 0.292663
N 67.868196 -1.389867 0.140909
H 66.703124 -4.467584 0.495467
H 64.787715 -2.580538 0.284444
H 64.808778 2.642501 -0.325073
H 66.739398 4.513871 -0.537924
H 69.336415 4.458269 -0.522019
H 71.933849 4.495472 -0.513590
H 73.849112 2.609162 -0.295266
H 73.828007 -2.618512 0.269245
H 71.897570 -4.490366 0.478853
H 69.300402 -4.432882 0.481011
