78

Fe 6.756250 -0.054016 0.023375
C 9.236656 -3.533252 0.103538
C 10.160659 -2.545487 0.149138
C 9.441187 -1.304823 0.120734
C 10.085640 -0.061882 0.136223
C 9.447689 1.183965 0.093362
C 10.174078 2.420959 0.089450
C 9.254822 3.413095 0.043664
C 7.972565 2.776858 0.022768
N 8.104752 1.415351 0.049793
C 6.764933 3.444574 -0.006367
C 5.554956 2.781282 -0.013468
C 4.270123 3.417731 -0.027975
C 3.351974 2.425427 -0.033083
C 4.078479 1.185572 -0.024508
N 5.424521 1.422307 -0.008959
C 3.453747 -0.046036 -0.044493
C 4.073254 -1.280487 -0.050459
C 3.341574 -2.516451 -0.088905
C 4.254934 -3.513151 -0.083518
C 5.542195 -2.883172 -0.038937
N 5.417863 -1.523683 -0.022031
C 6.748422 -3.552545 -0.004785
C 7.958647 -2.890828 0.050519
N 8.097641 -1.529954 0.063245
H 9.387903 -4.595055 0.105461
H 11.229092 -2.628538 0.195809
H 11.243518 2.498943 0.117105
H 9.411843 4.474061 0.026241
H 6.768845 4.523615 -0.019058
H 4.115223 4.479414 -0.032813
H 2.281424 2.501565 -0.043338
H 2.373189 -0.043439 -0.062806
H 2.271215 -2.587193 -0.116757
H 4.095384 -4.573831 -0.105719
H 6.746923 -4.631601 -0.016582
C 11.485338 -0.063882 0.187067
C 12.703785 -0.062546 0.227244
C 14.040841 -0.055544 0.256138
C 15.264066 -0.041686 0.271027
C 16.601382 -0.026515 0.266192
C 17.820288 -0.009514 0.245957
Fe 22.541161 0.054899 -0.053009
C 20.015059 3.493997 0.174407
C 19.105889 2.491999 0.205149
C 19.843220 1.262867 0.148897
C 19.219675 0.010053 0.191095
C 19.879019 -1.225235 0.177491
C 19.178193 -2.472990 0.275113
C 20.112595 -3.450549 0.218799
C 21.377392 -2.794830 0.082119
N 21.221490 -1.435623 0.068124
C 22.589078 -3.443226 -0.045803
C 23.779311 -2.760459 -0.191826
C 25.064665 -3.376049 -0.350638
C 25.961205 -2.369006 -0.450026
C 25.221653 -1.141203 -0.348330
N 23.888061 -1.399567 -0.197275
C 25.826814 0.099885 -0.381245
C 25.195788 1.323609 -0.271806
C 25.909829 2.570374 -0.289027
C 24.988321 3.551745 -0.164729
C 23.713283 2.901881 -0.076777
N 23.853849 1.545238 -0.137488
C 22.501141 3.552096 0.032488
C 21.301561 2.871723 0.091865
N 21.182293 1.509019 0.075566
H 19.848644 4.553320 0.201673
H 18.036930 2.558023 0.264847
H 18.114282 -2.567324 0.377577
H 19.976057 -4.513601 0.262126
H 22.603681 -4.522201 -0.038857
H 25.233977 -4.435169 -0.379494
H 27.025059 -2.427819 -0.577717
H 26.901413 0.114561 -0.495187
H 26.975078 2.657917 -0.383233
H 25.134488 4.614203 -0.136201
H 22.488095 4.630748 0.062989
