
  xtb     11212119253D
 xtb: 6.4.1 (bd6e46d)
358402  0     0  0            999 V2000
   65.5635    3.4420    0.0130 C   0  0  0  0  0  0  0  0  0  0  0  0
   66.5238    2.4969    0.0075 C   0  0  0  0  0  0  0  0  0  0  0  0
   65.8288    1.2225   -0.0298 C   0  0  0  0  0  0  0  0  0  0  0  0
   66.4960   -0.0189   -0.0438 C   0  0  0  0  0  0  0  0  0  0  0  0
   65.8502   -1.2661   -0.0730 C   0  0  0  0  0  0  0  0  0  0  0  0
   66.4589   -2.5495   -0.0835 C   0  0  0  0  0  0  0  0  0  0  0  0
   65.4584   -3.4778   -0.1147 C   0  0  0  0  0  0  0  0  0  0  0  0
   64.2173   -2.7810   -0.1246 C   0  0  0  0  0  0  0  0  0  0  0  0
   64.5068   -1.4504   -0.0978 N   0  0  0  0  0  0  0  0  0  0  0  0
   62.9516   -3.3473   -0.1575 C   0  0  0  0  0  0  0  0  0  0  0  0
   61.7321   -2.6846   -0.1688 C   0  0  0  0  0  0  0  0  0  0  0  0
   60.4567   -3.3857   -0.2064 C   0  0  0  0  0  0  0  0  0  0  0  0
   59.5047   -2.4345   -0.2064 C   0  0  0  0  0  0  0  0  0  0  0  0
   60.2058   -1.1603   -0.1687 C   0  0  0  0  0  0  0  0  0  0  0  0
   61.5421   -1.3491   -0.1472 N   0  0  0  0  0  0  0  0  0  0  0  0
   59.5558    0.0674   -0.1562 C   0  0  0  0  0  0  0  0  0  0  0  0
   60.1769    1.3063   -0.1204 C   0  0  0  0  0  0  0  0  0  0  0  0
   59.5668    2.5933   -0.1059 C   0  0  0  0  0  0  0  0  0  0  0  0
   60.5640    3.5226   -0.0701 C   0  0  0  0  0  0  0  0  0  0  0  0
   61.8086    2.8281   -0.0618 C   0  0  0  0  0  0  0  0  0  0  0  0
   61.5226    1.5000   -0.0928 N   0  0  0  0  0  0  0  0  0  0  0  0
   63.0747    3.3938   -0.0287 C   0  0  0  0  0  0  0  0  0  0  0  0
   64.2947    2.7345   -0.0218 C   0  0  0  0  0  0  0  0  0  0  0  0
   64.4970    1.3950   -0.0465 N   0  0  0  0  0  0  0  0  0  0  0  0
   65.6668    4.5098    0.0376 H   0  0  0  0  0  0  0  0  0  0  0  0
   67.5902    2.6120    0.0270 H   0  0  0  0  0  0  0  0  0  0  0  0
   67.5172   -2.7236   -0.0687 H   0  0  0  0  0  0  0  0  0  0  0  0
   65.5597   -4.5455   -0.1299 H   0  0  0  0  0  0  0  0  0  0  0  0
   63.8312   -0.6951   -0.0971 H   0  0  0  0  0  0  0  0  0  0  0  0
   62.9138   -4.4278   -0.1771 H   0  0  0  0  0  0  0  0  0  0  0  0
   60.3478   -4.4532   -0.2291 H   0  0  0  0  0  0  0  0  0  0  0  0
   58.4373   -2.5435   -0.2290 H   0  0  0  0  0  0  0  0  0  0  0  0
   58.4756    0.0562   -0.1757 H   0  0  0  0  0  0  0  0  0  0  0  0
   58.5087    2.7689   -0.1211 H   0  0  0  0  0  0  0  0  0  0  0  0
   60.4615    4.5904   -0.0511 H   0  0  0  0  0  0  0  0  0  0  0  0
   62.1960    0.7434   -0.0958 H   0  0  0  0  0  0  0  0  0  0  0  0
   63.1138    4.4742   -0.0063 H   0  0  0  0  0  0  0  0  0  0  0  0
  169.1441   -3.4295    0.3218 C   0  0  0  0  0  0  0  0  0  0  0  0
  168.1818   -2.4903    0.2379 C   0  0  0  0  0  0  0  0  0  0  0  0
  168.8742   -1.2206    0.1076 C   0  0  0  0  0  0  0  0  0  0  0  0
  168.2043    0.0141   -0.0079 C   0  0  0  0  0  0  0  0  0  0  0  0
  168.8475    1.2562   -0.1377 C   0  0  0  0  0  0  0  0  0  0  0  0
  168.2362    2.5326   -0.2596 C   0  0  0  0  0  0  0  0  0  0  0  0
  169.2350    3.4579   -0.3593 C   0  0  0  0  0  0  0  0  0  0  0  0
  170.4776    2.7664   -0.3001 C   0  0  0  0  0  0  0  0  0  0  0  0
  170.1907    1.4416   -0.1669 N   0  0  0  0  0  0  0  0  0  0  0  0
  171.7423    3.3322   -0.3647 C   0  0  0  0  0  0  0  0  0  0  0  0
  172.9634    2.6748   -0.3077 C   0  0  0  0  0  0  0  0  0  0  0  0
  174.2376    3.3749   -0.3859 C   0  0  0  0  0  0  0  0  0  0  0  0
  175.1917    2.4297   -0.2984 C   0  0  0  0  0  0  0  0  0  0  0  0
  174.4930    1.1604   -0.1675 C   0  0  0  0  0  0  0  0  0  0  0  0
  173.1561    1.3459   -0.1771 N   0  0  0  0  0  0  0  0  0  0  0  0
  175.1455   -0.0604   -0.0501 C   0  0  0  0  0  0  0  0  0  0  0  0
  174.5268   -1.2946    0.0761 C   0  0  0  0  0  0  0  0  0  0  0  0
  175.1397   -2.5745    0.1986 C   0  0  0  0  0  0  0  0  0  0  0  0
  174.1444   -3.5014    0.2956 C   0  0  0  0  0  0  0  0  0  0  0  0
  172.8981   -2.8125    0.2352 C   0  0  0  0  0  0  0  0  0  0  0  0
  173.1814   -1.4899    0.1034 N   0  0  0  0  0  0  0  0  0  0  0  0
  171.6330   -3.3776    0.2984 C   0  0  0  0  0  0  0  0  0  0  0  0
  170.4115   -2.7232    0.2425 C   0  0  0  0  0  0  0  0  0  0  0  0
  170.2064   -1.3903    0.1130 N   0  0  0  0  0  0  0  0  0  0  0  0
  169.0430   -4.4926    0.4269 H   0  0  0  0  0  0  0  0  0  0  0  0
  167.1155   -2.6064    0.2580 H   0  0  0  0  0  0  0  0  0  0  0  0
  167.1775    2.7043   -0.2687 H   0  0  0  0  0  0  0  0  0  0  0  0
  169.1316    4.5204   -0.4638 H   0  0  0  0  0  0  0  0  0  0  0  0
  170.8675    0.6905   -0.0977 H   0  0  0  0  0  0  0  0  0  0  0  0
  171.7778    4.4077   -0.4711 H   0  0  0  0  0  0  0  0  0  0  0  0
  174.3444    4.4375   -0.4922 H   0  0  0  0  0  0  0  0  0  0  0  0
  176.2590    2.5401   -0.3168 H   0  0  0  0  0  0  0  0  0  0  0  0
  176.2259   -0.0475   -0.0582 H   0  0  0  0  0  0  0  0  0  0  0  0
  176.1983   -2.7472    0.2096 H   0  0  0  0  0  0  0  0  0  0  0  0
  174.2492   -4.5640    0.3996 H   0  0  0  0  0  0  0  0  0  0  0  0
  172.5060   -0.7383    0.0336 H   0  0  0  0  0  0  0  0  0  0  0  0
  171.5958   -4.4531    0.4041 H   0  0  0  0  0  0  0  0  0  0  0  0
   67.8922   -0.0157   -0.0288 C   0  0  0  0  0  0  0  0  0  0  0  0
   69.1109   -0.0056   -0.0217 C   0  0  0  0  0  0  0  0  0  0  0  0
   70.4514    0.0061   -0.0135 C   0  0  0  0  0  0  0  0  0  0  0  0
   71.6703    0.0194   -0.0080 C   0  0  0  0  0  0  0  0  0  0  0  0
   81.4853   -0.0062    0.0899 C   0  0  0  0  0  0  0  0  0  0  0  0
   82.7044    0.0126    0.0992 C   0  0  0  0  0  0  0  0  0  0  0  0
   84.0442    0.0302    0.1035 C   0  0  0  0  0  0  0  0  0  0  0  0
   85.2633    0.0502    0.1042 C   0  0  0  0  0  0  0  0  0  0  0  0
   95.0754   -0.0009   -0.0688 C   0  0  0  0  0  0  0  0  0  0  0  0
   96.2944    0.0116   -0.0939 C   0  0  0  0  0  0  0  0  0  0  0  0
   97.6340    0.0230   -0.1152 C   0  0  0  0  0  0  0  0  0  0  0  0
   98.8532    0.0342   -0.1322 C   0  0  0  0  0  0  0  0  0  0  0  0
  108.6674   -0.0334   -0.0599 C   0  0  0  0  0  0  0  0  0  0  0  0
  109.8863   -0.0167   -0.0314 C   0  0  0  0  0  0  0  0  0  0  0  0
  111.2257   -0.0008    0.0001 C   0  0  0  0  0  0  0  0  0  0  0  0
  112.4445    0.0162    0.0300 C   0  0  0  0  0  0  0  0  0  0  0  0
  122.2599   -0.0114    0.1599 C   0  0  0  0  0  0  0  0  0  0  0  0
  123.4790    0.0053    0.1471 C   0  0  0  0  0  0  0  0  0  0  0  0
  124.8187    0.0207    0.1252 C   0  0  0  0  0  0  0  0  0  0  0  0
  126.0377    0.0365    0.1039 C   0  0  0  0  0  0  0  0  0  0  0  0
  135.8500   -0.0115   -0.0750 C   0  0  0  0  0  0  0  0  0  0  0  0
  137.0691    0.0056   -0.0798 C   0  0  0  0  0  0  0  0  0  0  0  0
  138.4088    0.0229   -0.0796 C   0  0  0  0  0  0  0  0  0  0  0  0
  139.6279    0.0407   -0.0768 C   0  0  0  0  0  0  0  0  0  0  0  0
  149.4393    0.0141    0.0396 C   0  0  0  0  0  0  0  0  0  0  0  0
  150.6584    0.0298    0.0544 C   0  0  0  0  0  0  0  0  0  0  0  0
  151.9981    0.0440    0.0708 C   0  0  0  0  0  0  0  0  0  0  0  0
  153.2171    0.0580    0.0855 C   0  0  0  0  0  0  0  0  0  0  0  0
  163.0304   -0.0183    0.0717 C   0  0  0  0  0  0  0  0  0  0  0  0
  164.2492   -0.0085    0.0510 C   0  0  0  0  0  0  0  0  0  0  0  0
  165.5896   -0.0001    0.0289 C   0  0  0  0  0  0  0  0  0  0  0  0
  166.8082    0.0098    0.0094 C   0  0  0  0  0  0  0  0  0  0  0  0
   74.0449   -3.4131    0.2032 C   0  0  0  0  0  0  0  0  0  0  0  0
   73.0702   -2.4848    0.1409 C   0  0  0  0  0  0  0  0  0  0  0  0
   73.7458   -1.2021    0.0761 C   0  0  0  0  0  0  0  0  0  0  0  0
   73.0652    0.0299    0.0000 C   0  0  0  0  0  0  0  0  0  0  0  0
   73.7117    1.2758   -0.0704 C   0  0  0  0  0  0  0  0  0  0  0  0
   73.1136    2.5598   -0.1573 C   0  0  0  0  0  0  0  0  0  0  0  0
   74.1238    3.4778   -0.2091 C   0  0  0  0  0  0  0  0  0  0  0  0
   75.3582    2.7728   -0.1541 C   0  0  0  0  0  0  0  0  0  0  0  0
   75.0570    1.4477   -0.0709 N   0  0  0  0  0  0  0  0  0  0  0  0
   76.6262    3.3378   -0.1803 C   0  0  0  0  0  0  0  0  0  0  0  0
   77.8533    2.6973   -0.1267 C   0  0  0  0  0  0  0  0  0  0  0  0
   79.1119    3.4229   -0.1618 C   0  0  0  0  0  0  0  0  0  0  0  0
   80.0863    2.4950   -0.0899 C   0  0  0  0  0  0  0  0  0  0  0  0
   79.4103    1.2132   -0.0122 C   0  0  0  0  0  0  0  0  0  0  0  0
   78.0762    1.3634   -0.0364 N   0  0  0  0  0  0  0  0  0  0  0  0
   80.0910   -0.0183    0.0757 C   0  0  0  0  0  0  0  0  0  0  0  0
   79.4447   -1.2644    0.1460 C   0  0  0  0  0  0  0  0  0  0  0  0
   80.0429   -2.5485    0.2303 C   0  0  0  0  0  0  0  0  0  0  0  0
   79.0329   -3.4672    0.2715 C   0  0  0  0  0  0  0  0  0  0  0  0
   77.7983   -2.7624    0.2135 C   0  0  0  0  0  0  0  0  0  0  0  0
   78.0996   -1.4367    0.1392 N   0  0  0  0  0  0  0  0  0  0  0  0
   76.5306   -3.3277    0.2292 C   0  0  0  0  0  0  0  0  0  0  0  0
   75.3033   -2.6868    0.1767 C   0  0  0  0  0  0  0  0  0  0  0  0
   75.0803   -1.3525    0.0987 N   0  0  0  0  0  0  0  0  0  0  0  0
   73.9577   -4.4810    0.2616 H   0  0  0  0  0  0  0  0  0  0  0  0
   72.0055   -2.6162    0.1366 H   0  0  0  0  0  0  0  0  0  0  0  0
   72.0569    2.7422   -0.1776 H   0  0  0  0  0  0  0  0  0  0  0  0
   74.0323    4.5442   -0.2791 H   0  0  0  0  0  0  0  0  0  0  0  0
   75.7128    0.6761   -0.0171 H   0  0  0  0  0  0  0  0  0  0  0  0
   76.6565    4.4168   -0.2508 H   0  0  0  0  0  0  0  0  0  0  0  0
   79.1995    4.4901   -0.2317 H   0  0  0  0  0  0  0  0  0  0  0  0
   81.1510    2.6263   -0.0874 H   0  0  0  0  0  0  0  0  0  0  0  0
   81.0996   -2.7307    0.2545 H   0  0  0  0  0  0  0  0  0  0  0  0
   79.1245   -4.5339    0.3358 H   0  0  0  0  0  0  0  0  0  0  0  0
   77.4440   -0.6650    0.0841 H   0  0  0  0  0  0  0  0  0  0  0  0
   76.4999   -4.4072    0.2910 H   0  0  0  0  0  0  0  0  0  0  0  0
   87.6363   -3.3693    0.4674 C   0  0  0  0  0  0  0  0  0  0  0  0
   86.6620   -2.4428    0.3780 C   0  0  0  0  0  0  0  0  0  0  0  0
   87.3380   -1.1682    0.2220 C   0  0  0  0  0  0  0  0  0  0  0  0
   86.6576    0.0600    0.0949 C   0  0  0  0  0  0  0  0  0  0  0  0
   87.3042    1.3001   -0.0460 C   0  0  0  0  0  0  0  0  0  0  0  0
   86.7058    2.5807   -0.1723 C   0  0  0  0  0  0  0  0  0  0  0  0
   87.7158    3.4935   -0.2857 C   0  0  0  0  0  0  0  0  0  0  0  0
   88.9501    2.7883   -0.2323 C   0  0  0  0  0  0  0  0  0  0  0  0
   88.6491    1.4686   -0.0858 N   0  0  0  0  0  0  0  0  0  0  0  0
   90.2179    3.3476   -0.3187 C   0  0  0  0  0  0  0  0  0  0  0  0
   91.4446    2.7052   -0.2785 C   0  0  0  0  0  0  0  0  0  0  0  0
   92.7030    3.4239   -0.3865 C   0  0  0  0  0  0  0  0  0  0  0  0
   93.6770    2.4959   -0.3105 C   0  0  0  0  0  0  0  0  0  0  0  0
   93.0010    1.2211   -0.1563 C   0  0  0  0  0  0  0  0  0  0  0  0
   91.6672    1.3754   -0.1407 N   0  0  0  0  0  0  0  0  0  0  0  0
   93.6814   -0.0081   -0.0381 C   0  0  0  0  0  0  0  0  0  0  0  0
   93.0350   -1.2470    0.1135 C   0  0  0  0  0  0  0  0  0  0  0  0
   93.6333   -2.5275    0.2419 C   0  0  0  0  0  0  0  0  0  0  0  0
   92.6235   -3.4388    0.3675 C   0  0  0  0  0  0  0  0  0  0  0  0
   91.3893   -2.7331    0.3180 C   0  0  0  0  0  0  0  0  0  0  0  0
   91.6903   -1.4142    0.1636 N   0  0  0  0  0  0  0  0  0  0  0  0
   90.1217   -3.2918    0.4099 C   0  0  0  0  0  0  0  0  0  0  0  0
   88.8947   -2.6502    0.3633 C   0  0  0  0  0  0  0  0  0  0  0  0
   88.6721   -1.3213    0.2171 N   0  0  0  0  0  0  0  0  0  0  0  0
   87.5488   -4.4317    0.5903 H   0  0  0  0  0  0  0  0  0  0  0  0
   85.5974   -2.5706    0.4112 H   0  0  0  0  0  0  0  0  0  0  0  0
   85.6492    2.7646   -0.1741 H   0  0  0  0  0  0  0  0  0  0  0  0
   87.6240    4.5564   -0.3968 H   0  0  0  0  0  0  0  0  0  0  0  0
   89.3058    0.6991   -0.0148 H   0  0  0  0  0  0  0  0  0  0  0  0
   90.2486    4.4227   -0.4344 H   0  0  0  0  0  0  0  0  0  0  0  0
   92.7907    4.4869   -0.5035 H   0  0  0  0  0  0  0  0  0  0  0  0
   94.7415    2.6229   -0.3504 H   0  0  0  0  0  0  0  0  0  0  0  0
   94.6898   -2.7122    0.2375 H   0  0  0  0  0  0  0  0  0  0  0  0
   92.7152   -4.5011    0.4837 H   0  0  0  0  0  0  0  0  0  0  0  0
   91.0342   -0.6441    0.0935 H   0  0  0  0  0  0  0  0  0  0  0  0
   90.0912   -4.3663    0.5313 H   0  0  0  0  0  0  0  0  0  0  0  0
  101.2111   -3.3939    0.2450 C   0  0  0  0  0  0  0  0  0  0  0  0
  100.2408   -2.4646    0.1414 C   0  0  0  0  0  0  0  0  0  0  0  0
  100.9226   -1.1916   -0.0016 C   0  0  0  0  0  0  0  0  0  0  0  0
  100.2475    0.0382   -0.1417 C   0  0  0  0  0  0  0  0  0  0  0  0
  100.8998    1.2744   -0.2903 C   0  0  0  0  0  0  0  0  0  0  0  0
  100.3074    2.5545   -0.4463 C   0  0  0  0  0  0  0  0  0  0  0  0
  101.3217    3.4626   -0.5573 C   0  0  0  0  0  0  0  0  0  0  0  0
  102.5530    2.7554   -0.4700 C   0  0  0  0  0  0  0  0  0  0  0  0
  102.2456    1.4387   -0.3100 N   0  0  0  0  0  0  0  0  0  0  0  0
  103.8237    3.3110   -0.5336 C   0  0  0  0  0  0  0  0  0  0  0  0
  105.0478    2.6682   -0.4459 C   0  0  0  0  0  0  0  0  0  0  0  0
  106.3096    3.3849   -0.5215 C   0  0  0  0  0  0  0  0  0  0  0  0
  107.2798    2.4585   -0.3944 C   0  0  0  0  0  0  0  0  0  0  0  0
  106.5981    1.1862   -0.2450 C   0  0  0  0  0  0  0  0  0  0  0  0
  105.2646    1.3407   -0.2797 N   0  0  0  0  0  0  0  0  0  0  0  0
  107.2733   -0.0415   -0.0869 C   0  0  0  0  0  0  0  0  0  0  0  0
  106.6210   -1.2795    0.0461 C   0  0  0  0  0  0  0  0  0  0  0  0
  107.2133   -2.5602    0.1974 C   0  0  0  0  0  0  0  0  0  0  0  0
  106.1989   -3.4708    0.2860 C   0  0  0  0  0  0  0  0  0  0  0  0
  104.9678   -2.7642    0.1922 C   0  0  0  0  0  0  0  0  0  0  0  0
  105.2752   -1.4457    0.0475 N   0  0  0  0  0  0  0  0  0  0  0  0
  103.6972   -3.3213    0.2440 C   0  0  0  0  0  0  0  0  0  0  0  0
  102.4730   -2.6776    0.1664 C   0  0  0  0  0  0  0  0  0  0  0  0
  102.2562   -1.3481    0.0164 N   0  0  0  0  0  0  0  0  0  0  0  0
  101.1187   -4.4563    0.3639 H   0  0  0  0  0  0  0  0  0  0  0  0
   99.1755   -2.5898    0.1552 H   0  0  0  0  0  0  0  0  0  0  0  0
   99.2515    2.7411   -0.4694 H   0  0  0  0  0  0  0  0  0  0  0  0
  101.2349    4.5238   -0.6871 H   0  0  0  0  0  0  0  0  0  0  0  0
  102.8989    0.6687   -0.2162 H   0  0  0  0  0  0  0  0  0  0  0  0
  103.8595    4.3840   -0.6655 H   0  0  0  0  0  0  0  0  0  0  0  0
  106.4020    4.4459   -0.6527 H   0  0  0  0  0  0  0  0  0  0  0  0
  108.3451    2.5849   -0.3982 H   0  0  0  0  0  0  0  0  0  0  0  0
  108.2691   -2.7458    0.2314 H   0  0  0  0  0  0  0  0  0  0  0  0
  106.2856   -4.5332    0.4057 H   0  0  0  0  0  0  0  0  0  0  0  0
  104.6225   -0.6754   -0.0475 H   0  0  0  0  0  0  0  0  0  0  0  0
  103.6617   -4.3958    0.3637 H   0  0  0  0  0  0  0  0  0  0  0  0
  114.8140   -3.3904    0.5239 C   0  0  0  0  0  0  0  0  0  0  0  0
  113.8406   -2.4691    0.3851 C   0  0  0  0  0  0  0  0  0  0  0  0
  114.5177   -1.1947    0.2324 C   0  0  0  0  0  0  0  0  0  0  0  0
  113.8385    0.0291    0.0626 C   0  0  0  0  0  0  0  0  0  0  0  0
  114.4867    1.2687   -0.0750 C   0  0  0  0  0  0  0  0  0  0  0  0
  113.8905    2.5459   -0.2400 C   0  0  0  0  0  0  0  0  0  0  0  0
  114.9019    3.4599   -0.3276 C   0  0  0  0  0  0  0  0  0  0  0  0
  116.1351    2.7589   -0.2195 C   0  0  0  0  0  0  0  0  0  0  0  0
  115.8318    1.4403   -0.0680 N   0  0  0  0  0  0  0  0  0  0  0  0
  117.4038    3.3210   -0.2654 C   0  0  0  0  0  0  0  0  0  0  0  0
  118.6302    2.6830   -0.1748 C   0  0  0  0  0  0  0  0  0  0  0  0
  119.8894    3.4043   -0.2510 C   0  0  0  0  0  0  0  0  0  0  0  0
  120.8631    2.4800   -0.1355 C   0  0  0  0  0  0  0  0  0  0  0  0
  120.1860    1.2050    0.0126 C   0  0  0  0  0  0  0  0  0  0  0  0
  118.8518    1.3556   -0.0142 N   0  0  0  0  0  0  0  0  0  0  0  0
  120.8656   -0.0209    0.1647 C   0  0  0  0  0  0  0  0  0  0  0  0
  120.2174   -1.2586    0.3183 C   0  0  0  0  0  0  0  0  0  0  0  0
  120.8135   -2.5354    0.4864 C   0  0  0  0  0  0  0  0  0  0  0  0
  119.8017   -3.4466    0.5963 C   0  0  0  0  0  0  0  0  0  0  0  0
  118.5684   -2.7446    0.4961 C   0  0  0  0  0  0  0  0  0  0  0  0
  118.8720   -1.4278    0.3303 N   0  0  0  0  0  0  0  0  0  0  0  0
  117.2995   -3.3051    0.5535 C   0  0  0  0  0  0  0  0  0  0  0  0
  116.0732   -2.6685    0.4528 C   0  0  0  0  0  0  0  0  0  0  0  0
  115.8517   -1.3430    0.2768 N   0  0  0  0  0  0  0  0  0  0  0  0
  114.7254   -4.4511    0.6607 H   0  0  0  0  0  0  0  0  0  0  0  0
  112.7759   -2.6001    0.3826 H   0  0  0  0  0  0  0  0  0  0  0  0
  112.8342    2.7269   -0.2834 H   0  0  0  0  0  0  0  0  0  0  0  0
  114.8118    4.5211   -0.4557 H   0  0  0  0  0  0  0  0  0  0  0  0
  116.4867    0.6731    0.0371 H   0  0  0  0  0  0  0  0  0  0  0  0
  117.4358    4.3947   -0.3922 H   0  0  0  0  0  0  0  0  0  0  0  0
  119.9778    4.4663   -0.3768 H   0  0  0  0  0  0  0  0  0  0  0  0
  121.9279    2.6097   -0.1442 H   0  0  0  0  0  0  0  0  0  0  0  0
  121.8699   -2.7181    0.5180 H   0  0  0  0  0  0  0  0  0  0  0  0
  119.8916   -4.5067    0.7332 H   0  0  0  0  0  0  0  0  0  0  0  0
  118.2174   -0.6601    0.2273 H   0  0  0  0  0  0  0  0  0  0  0  0
  117.2674   -4.3775    0.6914 H   0  0  0  0  0  0  0  0  0  0  0  0
  128.4118   -3.3849    0.4381 C   0  0  0  0  0  0  0  0  0  0  0  0
  127.4373   -2.4579    0.3567 C   0  0  0  0  0  0  0  0  0  0  0  0
  128.1128   -1.1833    0.1984 C   0  0  0  0  0  0  0  0  0  0  0  0
  127.4317    0.0451    0.0750 C   0  0  0  0  0  0  0  0  0  0  0  0
  128.0777    1.2840   -0.0786 C   0  0  0  0  0  0  0  0  0  0  0  0
  127.4791    2.5640   -0.2096 C   0  0  0  0  0  0  0  0  0  0  0  0
  128.4887    3.4756   -0.3348 C   0  0  0  0  0  0  0  0  0  0  0  0
  129.7232    2.7704   -0.2829 C   0  0  0  0  0  0  0  0  0  0  0  0
  129.4225    1.4516   -0.1272 N   0  0  0  0  0  0  0  0  0  0  0  0
  130.9906    3.3294   -0.3755 C   0  0  0  0  0  0  0  0  0  0  0  0
  132.2177    2.6880   -0.3303 C   0  0  0  0  0  0  0  0  0  0  0  0
  133.4759    3.4069   -0.4394 C   0  0  0  0  0  0  0  0  0  0  0  0
  134.4504    2.4805   -0.3516 C   0  0  0  0  0  0  0  0  0  0  0  0
  133.7748    1.2062   -0.1908 C   0  0  0  0  0  0  0  0  0  0  0  0
  132.4408    1.3594   -0.1824 N   0  0  0  0  0  0  0  0  0  0  0  0
  134.4558   -0.0214   -0.0605 C   0  0  0  0  0  0  0  0  0  0  0  0
  133.8099   -1.2608    0.0885 C   0  0  0  0  0  0  0  0  0  0  0  0
  134.4087   -2.5406    0.2206 C   0  0  0  0  0  0  0  0  0  0  0  0
  133.3990   -3.4530    0.3398 C   0  0  0  0  0  0  0  0  0  0  0  0
  132.1644   -2.7483    0.2839 C   0  0  0  0  0  0  0  0  0  0  0  0
  132.4650   -1.4293    0.1308 N   0  0  0  0  0  0  0  0  0  0  0  0
  130.8968   -3.3077    0.3728 C   0  0  0  0  0  0  0  0  0  0  0  0
  129.6699   -2.6660    0.3288 C   0  0  0  0  0  0  0  0  0  0  0  0
  129.4467   -1.3369    0.1851 N   0  0  0  0  0  0  0  0  0  0  0  0
  128.3246   -4.4475    0.5595 H   0  0  0  0  0  0  0  0  0  0  0  0
  126.3729   -2.5854    0.3956 H   0  0  0  0  0  0  0  0  0  0  0  0
  126.4226    2.7484   -0.2071 H   0  0  0  0  0  0  0  0  0  0  0  0
  128.3968    4.5377   -0.4524 H   0  0  0  0  0  0  0  0  0  0  0  0
  130.0788    0.6819   -0.0547 H   0  0  0  0  0  0  0  0  0  0  0  0
  131.0207    4.4037   -0.4981 H   0  0  0  0  0  0  0  0  0  0  0  0
  133.5632    4.4691   -0.5642 H   0  0  0  0  0  0  0  0  0  0  0  0
  135.5150    2.6081   -0.3884 H   0  0  0  0  0  0  0  0  0  0  0  0
  135.4653   -2.7244    0.2223 H   0  0  0  0  0  0  0  0  0  0  0  0
  133.4911   -4.5153    0.4564 H   0  0  0  0  0  0  0  0  0  0  0  0
  131.8086   -0.6599    0.0568 H   0  0  0  0  0  0  0  0  0  0  0  0
  130.8666   -4.3822    0.4934 H   0  0  0  0  0  0  0  0  0  0  0  0
  141.9971   -3.3744    0.3405 C   0  0  0  0  0  0  0  0  0  0  0  0
  141.0239   -2.4499    0.2235 C   0  0  0  0  0  0  0  0  0  0  0  0
  141.7016   -1.1744    0.0822 C   0  0  0  0  0  0  0  0  0  0  0  0
  141.0222    0.0521   -0.0664 C   0  0  0  0  0  0  0  0  0  0  0  0
  141.6694    1.2922   -0.2030 C   0  0  0  0  0  0  0  0  0  0  0  0
  141.0716    2.5702   -0.3558 C   0  0  0  0  0  0  0  0  0  0  0  0
  142.0821    3.4845   -0.4505 C   0  0  0  0  0  0  0  0  0  0  0  0
  143.3163    2.7830   -0.3574 C   0  0  0  0  0  0  0  0  0  0  0  0
  143.0145    1.4636   -0.2090 N   0  0  0  0  0  0  0  0  0  0  0  0
  144.5845    3.3454   -0.4091 C   0  0  0  0  0  0  0  0  0  0  0  0
  145.8110    2.7070   -0.3216 C   0  0  0  0  0  0  0  0  0  0  0  0
  147.0704    3.4285   -0.3919 C   0  0  0  0  0  0  0  0  0  0  0  0
  148.0436    2.5043   -0.2721 C   0  0  0  0  0  0  0  0  0  0  0  0
  147.3660    1.2289   -0.1304 C   0  0  0  0  0  0  0  0  0  0  0  0
  146.0320    1.3792   -0.1639 N   0  0  0  0  0  0  0  0  0  0  0  0
  148.0451    0.0028    0.0215 C   0  0  0  0  0  0  0  0  0  0  0  0
  147.3978   -1.2375    0.1565 C   0  0  0  0  0  0  0  0  0  0  0  0
  147.9956   -2.5152    0.3111 C   0  0  0  0  0  0  0  0  0  0  0  0
  146.9853   -3.4300    0.4033 C   0  0  0  0  0  0  0  0  0  0  0  0
  145.7512   -2.7290    0.3071 C   0  0  0  0  0  0  0  0  0  0  0  0
  146.0527   -1.4096    0.1591 N   0  0  0  0  0  0  0  0  0  0  0  0
  144.4828   -3.2915    0.3570 C   0  0  0  0  0  0  0  0  0  0  0  0
  143.2566   -2.6531    0.2697 C   0  0  0  0  0  0  0  0  0  0  0  0
  143.0355   -1.3250    0.1133 N   0  0  0  0  0  0  0  0  0  0  0  0
  141.9082   -4.4368    0.4631 H   0  0  0  0  0  0  0  0  0  0  0  0
  139.9590   -2.5796    0.2280 H   0  0  0  0  0  0  0  0  0  0  0  0
  140.0150    2.7516   -0.3872 H   0  0  0  0  0  0  0  0  0  0  0  0
  141.9911    4.5461   -0.5731 H   0  0  0  0  0  0  0  0  0  0  0  0
  143.6700    0.6958   -0.1138 H   0  0  0  0  0  0  0  0  0  0  0  0
  144.6160    4.4194   -0.5331 H   0  0  0  0  0  0  0  0  0  0  0  0
  147.1592    4.4907   -0.5157 H   0  0  0  0  0  0  0  0  0  0  0  0
  149.1085    2.6341   -0.2753 H   0  0  0  0  0  0  0  0  0  0  0  0
  149.0522   -2.6961    0.3453 H   0  0  0  0  0  0  0  0  0  0  0  0
  147.0766   -4.4916    0.5264 H   0  0  0  0  0  0  0  0  0  0  0  0
  145.3962   -0.6427    0.0626 H   0  0  0  0  0  0  0  0  0  0  0  0
  144.4513   -4.3657    0.4806 H   0  0  0  0  0  0  0  0  0  0  0  0
  155.5748   -3.3667    0.4919 C   0  0  0  0  0  0  0  0  0  0  0  0
  154.6047   -2.4381    0.3818 C   0  0  0  0  0  0  0  0  0  0  0  0
  155.2867   -1.1651    0.2384 C   0  0  0  0  0  0  0  0  0  0  0  0
  154.6115    0.0645    0.0973 C   0  0  0  0  0  0  0  0  0  0  0  0
  155.2631    1.3030   -0.0327 C   0  0  0  0  0  0  0  0  0  0  0  0
  154.6701    2.5850   -0.1700 C   0  0  0  0  0  0  0  0  0  0  0  0
  155.6840    3.4957   -0.2615 C   0  0  0  0  0  0  0  0  0  0  0  0
  156.9156    2.7880   -0.1832 C   0  0  0  0  0  0  0  0  0  0  0  0
  156.6089    1.4686   -0.0451 N   0  0  0  0  0  0  0  0  0  0  0  0
  158.1861    3.3445   -0.2411 C   0  0  0  0  0  0  0  0  0  0  0  0
  159.4103    2.6989   -0.1777 C   0  0  0  0  0  0  0  0  0  0  0  0
  160.6722    3.4148   -0.2602 C   0  0  0  0  0  0  0  0  0  0  0  0
  161.6424    2.4840   -0.1716 C   0  0  0  0  0  0  0  0  0  0  0  0
  160.9607    1.2103   -0.0338 C   0  0  0  0  0  0  0  0  0  0  0  0
  159.6269    1.3683   -0.0404 N   0  0  0  0  0  0  0  0  0  0  0  0
  161.6356   -0.0209    0.0909 C   0  0  0  0  0  0  0  0  0  0  0  0
  160.9838   -1.2577    0.2346 C   0  0  0  0  0  0  0  0  0  0  0  0
  161.5768   -2.5393    0.3753 C   0  0  0  0  0  0  0  0  0  0  0  0
  160.5630   -3.4479    0.4872 C   0  0  0  0  0  0  0  0  0  0  0  0
  159.3314   -2.7394    0.4158 C   0  0  0  0  0  0  0  0  0  0  0  0
  159.6379   -1.4217    0.2642 N   0  0  0  0  0  0  0  0  0  0  0  0
  158.0609   -3.2951    0.4848 C   0  0  0  0  0  0  0  0  0  0  0  0
  156.8368   -2.6507    0.4124 C   0  0  0  0  0  0  0  0  0  0  0  0
  156.6202   -1.3214    0.2602 N   0  0  0  0  0  0  0  0  0  0  0  0
  155.4822   -4.4288    0.6138 H   0  0  0  0  0  0  0  0  0  0  0  0
  153.5393   -2.5634    0.3932 H   0  0  0  0  0  0  0  0  0  0  0  0
  153.6141    2.7712   -0.1935 H   0  0  0  0  0  0  0  0  0  0  0  0
  155.5967    4.5589   -0.3734 H   0  0  0  0  0  0  0  0  0  0  0  0
  157.2617    0.6972    0.0388 H   0  0  0  0  0  0  0  0  0  0  0  0
  158.2218    4.4198   -0.3533 H   0  0  0  0  0  0  0  0  0  0  0  0
  160.7645    4.4782   -0.3710 H   0  0  0  0  0  0  0  0  0  0  0  0
  162.7077    2.6084   -0.1922 H   0  0  0  0  0  0  0  0  0  0  0  0
  162.6328   -2.7266    0.3883 H   0  0  0  0  0  0  0  0  0  0  0  0
  160.6503   -4.5102    0.6076 H   0  0  0  0  0  0  0  0  0  0  0  0
  158.9842   -0.6508    0.1819 H   0  0  0  0  0  0  0  0  0  0  0  0
  158.0255   -4.3692    0.6078 H   0  0  0  0  0  0  0  0  0  0  0  0
  1  2  2  0  0  0  0
  2  3  1  0  0  0  0
  3  4  4  0  0  0  0
  4  5  4  0  0  0  0
  5  6  4  0  0  0  0
  6  7  2  0  0  0  0
  7  8  4  0  0  0  0
  5  9  4  0  0  0  0
  8  9  4  0  0  0  0
  8 10  4  0  0  0  0
 10 11  4  0  0  0  0
 11 12  1  0  0  0  0
 12 13  2  0  0  0  0
 13 14  1  0  0  0  0
 11 15  4  0  0  0  0
 14 15  4  0  0  0  0
 14 16  4  0  0  0  0
 16 17  4  0  0  0  0
 17 18  4  0  0  0  0
 18 19  2  0  0  0  0
 19 20  4  0  0  0  0
 17 21  4  0  0  0  0
 20 21  4  0  0  0  0
 20 22  4  0  0  0  0
  1 23  1  0  0  0  0
 22 23  4  0  0  0  0
  3 24  4  0  0  0  0
 23 24  4  0  0  0  0
  1 25  1  0  0  0  0
  2 26  1  0  0  0  0
  6 27  1  0  0  0  0
  7 28  1  0  0  0  0
  9 29  1  0  0  0  0
 10 30  1  0  0  0  0
 12 31  1  0  0  0  0
 13 32  1  0  0  0  0
 16 33  1  0  0  0  0
 18 34  1  0  0  0  0
 19 35  1  0  0  0  0
 21 36  1  0  0  0  0
 22 37  1  0  0  0  0
 38 39  2  0  0  0  0
 39 40  1  0  0  0  0
 40 41  4  0  0  0  0
 41 42  4  0  0  0  0
 42 43  4  0  0  0  0
 43 44  2  0  0  0  0
 44 45  4  0  0  0  0
 42 46  4  0  0  0  0
 45 46  4  0  0  0  0
 45 47  4  0  0  0  0
 47 48  4  0  0  0  0
 48 49  1  0  0  0  0
 49 50  2  0  0  0  0
 50 51  1  0  0  0  0
 48 52  4  0  0  0  0
 51 52  4  0  0  0  0
 51 53  4  0  0  0  0
 53 54  4  0  0  0  0
 54 55  4  0  0  0  0
 55 56  2  0  0  0  0
 56 57  4  0  0  0  0
 54 58  4  0  0  0  0
 57 58  4  0  0  0  0
 57 59  4  0  0  0  0
 38 60  1  0  0  0  0
 59 60  4  0  0  0  0
 40 61  4  0  0  0  0
 60 61  4  0  0  0  0
 38 62  1  0  0  0  0
 39 63  1  0  0  0  0
 43 64  1  0  0  0  0
 44 65  1  0  0  0  0
 46 66  1  0  0  0  0
 47 67  1  0  0  0  0
 49 68  1  0  0  0  0
 50 69  1  0  0  0  0
 53 70  1  0  0  0  0
 55 71  1  0  0  0  0
 56 72  1  0  0  0  0
 58 73  1  0  0  0  0
 59 74  1  0  0  0  0
  4 75  1  0  0  0  0
 75 76  3  0  0  0  0
 76 77  4  0  0  0  0
 77 78  3  0  0  0  0
 79 80  3  0  0  0  0
 80 81  4  0  0  0  0
 81 82  3  0  0  0  0
 83 84  3  0  0  0  0
 84 85  4  0  0  0  0
 85 86  3  0  0  0  0
 87 88  3  0  0  0  0
 88 89  4  0  0  0  0
 89 90  3  0  0  0  0
 91 92  3  0  0  0  0
 92 93  4  0  0  0  0
 93 94  3  0  0  0  0
 95 96  3  0  0  0  0
 96 97  4  0  0  0  0
 97 98  3  0  0  0  0
 99100  3  0  0  0  0
100101  4  0  0  0  0
101102  3  0  0  0  0
103104  3  0  0  0  0
104105  4  0  0  0  0
 41106  1  0  0  0  0
105106  3  0  0  0  0
107108  2  0  0  0  0
108109  1  0  0  0  0
 78110  1  0  0  0  0
109110  4  0  0  0  0
110111  4  0  0  0  0
111112  4  0  0  0  0
112113  2  0  0  0  0
113114  4  0  0  0  0
111115  4  0  0  0  0
114115  4  0  0  0  0
114116  4  0  0  0  0
116117  4  0  0  0  0
117118  1  0  0  0  0
118119  2  0  0  0  0
119120  1  0  0  0  0
117121  4  0  0  0  0
120121  4  0  0  0  0
 79122  1  0  0  0  0
120122  4  0  0  0  0
122123  4  0  0  0  0
123124  4  0  0  0  0
124125  2  0  0  0  0
125126  4  0  0  0  0
123127  4  0  0  0  0
126127  4  0  0  0  0
126128  4  0  0  0  0
107129  1  0  0  0  0
128129  4  0  0  0  0
109130  4  0  0  0  0
129130  4  0  0  0  0
107131  1  0  0  0  0
108132  1  0  0  0  0
112133  1  0  0  0  0
113134  1  0  0  0  0
115135  1  0  0  0  0
116136  1  0  0  0  0
118137  1  0  0  0  0
119138  1  0  0  0  0
124139  1  0  0  0  0
125140  1  0  0  0  0
127141  1  0  0  0  0
128142  1  0  0  0  0
143144  2  0  0  0  0
144145  1  0  0  0  0
 82146  1  0  0  0  0
145146  4  0  0  0  0
146147  4  0  0  0  0
147148  4  0  0  0  0
148149  2  0  0  0  0
149150  4  0  0  0  0
147151  4  0  0  0  0
150151  4  0  0  0  0
150152  4  0  0  0  0
152153  4  0  0  0  0
153154  1  0  0  0  0
154155  2  0  0  0  0
155156  1  0  0  0  0
153157  4  0  0  0  0
156157  4  0  0  0  0
 83158  1  0  0  0  0
156158  4  0  0  0  0
158159  4  0  0  0  0
159160  4  0  0  0  0
160161  2  0  0  0  0
161162  4  0  0  0  0
159163  4  0  0  0  0
162163  4  0  0  0  0
162164  4  0  0  0  0
143165  1  0  0  0  0
164165  4  0  0  0  0
145166  4  0  0  0  0
165166  4  0  0  0  0
143167  1  0  0  0  0
144168  1  0  0  0  0
148169  1  0  0  0  0
149170  1  0  0  0  0
151171  1  0  0  0  0
152172  1  0  0  0  0
154173  1  0  0  0  0
155174  1  0  0  0  0
160175  1  0  0  0  0
161176  1  0  0  0  0
163177  1  0  0  0  0
164178  1  0  0  0  0
179180  2  0  0  0  0
180181  1  0  0  0  0
 86182  1  0  0  0  0
181182  4  0  0  0  0
182183  4  0  0  0  0
183184  4  0  0  0  0
184185  2  0  0  0  0
185186  4  0  0  0  0
183187  4  0  0  0  0
186187  4  0  0  0  0
186188  4  0  0  0  0
188189  4  0  0  0  0
189190  1  0  0  0  0
190191  2  0  0  0  0
191192  1  0  0  0  0
189193  4  0  0  0  0
192193  4  0  0  0  0
 87194  1  0  0  0  0
192194  4  0  0  0  0
194195  4  0  0  0  0
195196  4  0  0  0  0
196197  2  0  0  0  0
197198  4  0  0  0  0
195199  4  0  0  0  0
198199  4  0  0  0  0
198200  4  0  0  0  0
179201  1  0  0  0  0
200201  4  0  0  0  0
181202  4  0  0  0  0
201202  4  0  0  0  0
179203  1  0  0  0  0
180204  1  0  0  0  0
184205  1  0  0  0  0
185206  1  0  0  0  0
187207  1  0  0  0  0
188208  1  0  0  0  0
190209  1  0  0  0  0
191210  1  0  0  0  0
196211  1  0  0  0  0
197212  1  0  0  0  0
199213  1  0  0  0  0
200214  1  0  0  0  0
215216  2  0  0  0  0
216217  1  0  0  0  0
 90218  1  0  0  0  0
217218  4  0  0  0  0
218219  4  0  0  0  0
219220  4  0  0  0  0
220221  2  0  0  0  0
221222  4  0  0  0  0
219223  4  0  0  0  0
222223  4  0  0  0  0
222224  4  0  0  0  0
224225  4  0  0  0  0
225226  1  0  0  0  0
226227  2  0  0  0  0
227228  1  0  0  0  0
225229  4  0  0  0  0
228229  4  0  0  0  0
 91230  1  0  0  0  0
228230  4  0  0  0  0
230231  4  0  0  0  0
231232  4  0  0  0  0
232233  2  0  0  0  0
233234  4  0  0  0  0
231235  4  0  0  0  0
234235  4  0  0  0  0
234236  4  0  0  0  0
215237  1  0  0  0  0
236237  4  0  0  0  0
217238  4  0  0  0  0
237238  4  0  0  0  0
215239  1  0  0  0  0
216240  1  0  0  0  0
220241  1  0  0  0  0
221242  1  0  0  0  0
223243  1  0  0  0  0
224244  1  0  0  0  0
226245  1  0  0  0  0
227246  1  0  0  0  0
232247  1  0  0  0  0
233248  1  0  0  0  0
235249  1  0  0  0  0
236250  1  0  0  0  0
251252  2  0  0  0  0
252253  1  0  0  0  0
 94254  1  0  0  0  0
253254  4  0  0  0  0
254255  4  0  0  0  0
255256  4  0  0  0  0
256257  2  0  0  0  0
257258  4  0  0  0  0
255259  4  0  0  0  0
258259  4  0  0  0  0
258260  4  0  0  0  0
260261  4  0  0  0  0
261262  1  0  0  0  0
262263  2  0  0  0  0
263264  1  0  0  0  0
261265  4  0  0  0  0
264265  4  0  0  0  0
 95266  1  0  0  0  0
264266  4  0  0  0  0
266267  4  0  0  0  0
267268  4  0  0  0  0
268269  2  0  0  0  0
269270  4  0  0  0  0
267271  4  0  0  0  0
270271  4  0  0  0  0
270272  4  0  0  0  0
251273  1  0  0  0  0
272273  4  0  0  0  0
253274  4  0  0  0  0
273274  4  0  0  0  0
251275  1  0  0  0  0
252276  1  0  0  0  0
256277  1  0  0  0  0
257278  1  0  0  0  0
259279  1  0  0  0  0
260280  1  0  0  0  0
262281  1  0  0  0  0
263282  1  0  0  0  0
268283  1  0  0  0  0
269284  1  0  0  0  0
271285  1  0  0  0  0
272286  1  0  0  0  0
287288  2  0  0  0  0
288289  1  0  0  0  0
 98290  1  0  0  0  0
289290  4  0  0  0  0
290291  4  0  0  0  0
291292  4  0  0  0  0
292293  2  0  0  0  0
293294  4  0  0  0  0
291295  4  0  0  0  0
294295  4  0  0  0  0
294296  4  0  0  0  0
296297  4  0  0  0  0
297298  1  0  0  0  0
298299  2  0  0  0  0
299300  1  0  0  0  0
297301  4  0  0  0  0
300301  4  0  0  0  0
 99302  1  0  0  0  0
300302  4  0  0  0  0
302303  4  0  0  0  0
303304  4  0  0  0  0
304305  2  0  0  0  0
305306  4  0  0  0  0
303307  4  0  0  0  0
306307  4  0  0  0  0
306308  4  0  0  0  0
287309  1  0  0  0  0
308309  4  0  0  0  0
289310  4  0  0  0  0
309310  4  0  0  0  0
287311  1  0  0  0  0
288312  1  0  0  0  0
292313  1  0  0  0  0
293314  1  0  0  0  0
295315  1  0  0  0  0
296316  1  0  0  0  0
298317  1  0  0  0  0
299318  1  0  0  0  0
304319  1  0  0  0  0
305320  1  0  0  0  0
307321  1  0  0  0  0
308322  1  0  0  0  0
323324  2  0  0  0  0
324325  1  0  0  0  0
102326  1  0  0  0  0
325326  4  0  0  0  0
326327  4  0  0  0  0
327328  4  0  0  0  0
328329  2  0  0  0  0
329330  4  0  0  0  0
327331  4  0  0  0  0
330331  4  0  0  0  0
330332  4  0  0  0  0
332333  4  0  0  0  0
333334  1  0  0  0  0
334335  2  0  0  0  0
335336  1  0  0  0  0
333337  4  0  0  0  0
336337  4  0  0  0  0
103338  1  0  0  0  0
336338  4  0  0  0  0
338339  4  0  0  0  0
339340  4  0  0  0  0
340341  2  0  0  0  0
341342  4  0  0  0  0
339343  4  0  0  0  0
342343  4  0  0  0  0
342344  4  0  0  0  0
323345  1  0  0  0  0
344345  4  0  0  0  0
325346  4  0  0  0  0
345346  4  0  0  0  0
323347  1  0  0  0  0
324348  1  0  0  0  0
328349  1  0  0  0  0
329350  1  0  0  0  0
331351  1  0  0  0  0
332352  1  0  0  0  0
334353  1  0  0  0  0
335354  1  0  0  0  0
340355  1  0  0  0  0
341356  1  0  0  0  0
343357  1  0  0  0  0
344358  1  0  0  0  0
M  END
