
  xtb     11202115573D
 xtb: 6.4.1 (bd6e46d)
201240  0     0  0            999 V2000
   23.4632   -0.0011   -0.0097 Fe  0  0  0  0  0  0  0  0  0  0  0  0
   25.9735   -3.3813    0.0197 C   0  0  0  0  0  0  0  0  0  0  0  0
   26.9628   -2.4571    0.0220 C   0  0  0  0  0  0  0  0  0  0  0  0
   26.3183   -1.1798    0.0133 C   0  0  0  0  0  0  0  0  0  0  0  0
   26.9908    0.0465    0.0127 C   0  0  0  0  0  0  0  0  0  0  0  0
   26.2858    1.2543    0.0066 C   0  0  0  0  0  0  0  0  0  0  0  0
   26.8956    2.5486    0.0098 C   0  0  0  0  0  0  0  0  0  0  0  0
   25.8818    3.4457    0.0028 C   0  0  0  0  0  0  0  0  0  0  0  0
   24.6602    2.6936   -0.0052 C   0  0  0  0  0  0  0  0  0  0  0  0
   24.9285    1.3498   -0.0021 N   0  0  0  0  0  0  0  0  0  0  0  0
   23.4162    3.2936   -0.0162 C   0  0  0  0  0  0  0  0  0  0  0  0
   22.1903    2.6579   -0.0263 C   0  0  0  0  0  0  0  0  0  0  0  0
   20.9447    3.3739   -0.0399 C   0  0  0  0  0  0  0  0  0  0  0  0
   19.9601    2.4475   -0.0477 C   0  0  0  0  0  0  0  0  0  0  0  0
   20.6072    1.1675   -0.0384 C   0  0  0  0  0  0  0  0  0  0  0  0
   21.9644    1.3093   -0.0257 N   0  0  0  0  0  0  0  0  0  0  0  0
   19.9534   -0.0485   -0.0409 C   0  0  0  0  0  0  0  0  0  0  0  0
   20.6396   -1.2465   -0.0302 C   0  0  0  0  0  0  0  0  0  0  0  0
   20.0272   -2.5434   -0.0304 C   0  0  0  0  0  0  0  0  0  0  0  0
   21.0364   -3.4429   -0.0176 C   0  0  0  0  0  0  0  0  0  0  0  0
   22.2623   -2.6936   -0.0099 C   0  0  0  0  0  0  0  0  0  0  0  0
   22.0002   -1.3516   -0.0176 N   0  0  0  0  0  0  0  0  0  0  0  0
   23.5048   -3.2959    0.0025 C   0  0  0  0  0  0  0  0  0  0  0  0
   24.7322   -2.6624    0.0091 C   0  0  0  0  0  0  0  0  0  0  0  0
   24.9641   -1.3119    0.0056 N   0  0  0  0  0  0  0  0  0  0  0  0
   26.0570   -4.4509    0.0243 H   0  0  0  0  0  0  0  0  0  0  0  0
   28.0254   -2.6041    0.0289 H   0  0  0  0  0  0  0  0  0  0  0  0
   27.9539    2.7241    0.0168 H   0  0  0  0  0  0  0  0  0  0  0  0
   25.9363    4.5172    0.0025 H   0  0  0  0  0  0  0  0  0  0  0  0
   23.4017    4.3744   -0.0178 H   0  0  0  0  0  0  0  0  0  0  0  0
   20.8595    4.4436   -0.0431 H   0  0  0  0  0  0  0  0  0  0  0  0
   18.8973    2.5935   -0.0585 H   0  0  0  0  0  0  0  0  0  0  0  0
   18.8746   -0.0630   -0.0510 H   0  0  0  0  0  0  0  0  0  0  0  0
   18.9688   -2.7182   -0.0391 H   0  0  0  0  0  0  0  0  0  0  0  0
   20.9801   -4.5145   -0.0136 H   0  0  0  0  0  0  0  0  0  0  0  0
   23.5196   -4.3767    0.0069 H   0  0  0  0  0  0  0  0  0  0  0  0
   88.2322    0.0289   -0.0084 Fe  0  0  0  0  0  0  0  0  0  0  0  0
   85.7281    3.3516    0.6378 C   0  0  0  0  0  0  0  0  0  0  0  0
   84.7371    2.4453    0.4668 C   0  0  0  0  0  0  0  0  0  0  0  0
   85.3794    1.1900    0.2239 C   0  0  0  0  0  0  0  0  0  0  0  0
   84.7046   -0.0142   -0.0014 C   0  0  0  0  0  0  0  0  0  0  0  0
   85.4072   -1.2024   -0.2250 C   0  0  0  0  0  0  0  0  0  0  0  0
   84.7950   -2.4742   -0.4595 C   0  0  0  0  0  0  0  0  0  0  0  0
   85.8072   -3.3571   -0.6286 C   0  0  0  0  0  0  0  0  0  0  0  0
   87.0302   -2.6188   -0.4971 C   0  0  0  0  0  0  0  0  0  0  0  0
   86.7644   -1.2976   -0.2491 N   0  0  0  0  0  0  0  0  0  0  0  0
   88.2732   -3.2094   -0.6155 C   0  0  0  0  0  0  0  0  0  0  0  0
   89.5002   -2.5850   -0.5085 C   0  0  0  0  0  0  0  0  0  0  0  0
   90.7446   -3.2891   -0.6514 C   0  0  0  0  0  0  0  0  0  0  0  0
   91.7308   -2.3785   -0.4904 C   0  0  0  0  0  0  0  0  0  0  0  0
   91.0861   -1.1204   -0.2487 C   0  0  0  0  0  0  0  0  0  0  0  0
   89.7286   -1.2595   -0.2625 N   0  0  0  0  0  0  0  0  0  0  0  0
   91.7421    0.0746   -0.0297 C   0  0  0  0  0  0  0  0  0  0  0  0
   91.0581    1.2517    0.1998 C   0  0  0  0  0  0  0  0  0  0  0  0
   91.6729    2.5255    0.4375 C   0  0  0  0  0  0  0  0  0  0  0  0
   90.6654    3.4091    0.6160 C   0  0  0  0  0  0  0  0  0  0  0  0
   89.4381    2.6733    0.4862 C   0  0  0  0  0  0  0  0  0  0  0  0
   89.6977    1.3552    0.2318 N   0  0  0  0  0  0  0  0  0  0  0  0
   88.1967    3.2655    0.6091 C   0  0  0  0  0  0  0  0  0  0  0  0
   86.9682    2.6443    0.4972 C   0  0  0  0  0  0  0  0  0  0  0  0
   86.7339    1.3181    0.2440 N   0  0  0  0  0  0  0  0  0  0  0  0
   85.6466    4.4021    0.8401 H   0  0  0  0  0  0  0  0  0  0  0  0
   83.6748    2.5908    0.4986 H   0  0  0  0  0  0  0  0  0  0  0  0
   83.7364   -2.6458   -0.4866 H   0  0  0  0  0  0  0  0  0  0  0  0
   85.7508   -4.4104   -0.8247 H   0  0  0  0  0  0  0  0  0  0  0  0
   88.2856   -4.2718   -0.8141 H   0  0  0  0  0  0  0  0  0  0  0  0
   90.8279   -4.3405   -0.8489 H   0  0  0  0  0  0  0  0  0  0  0  0
   92.7934   -2.5223   -0.5271 H   0  0  0  0  0  0  0  0  0  0  0  0
   92.8210    0.0887   -0.0370 H   0  0  0  0  0  0  0  0  0  0  0  0
   92.7317    2.6970    0.4605 H   0  0  0  0  0  0  0  0  0  0  0  0
   90.7237    4.4616    0.8168 H   0  0  0  0  0  0  0  0  0  0  0  0
   88.1839    4.3269    0.8127 H   0  0  0  0  0  0  0  0  0  0  0  0
   28.3866    0.0632    0.0168 C   0  0  0  0  0  0  0  0  0  0  0  0
   29.6063    0.0710    0.0169 C   0  0  0  0  0  0  0  0  0  0  0  0
   30.9432    0.0764    0.0159 C   0  0  0  0  0  0  0  0  0  0  0  0
   32.1674    0.0793    0.0099 C   0  0  0  0  0  0  0  0  0  0  0  0
   33.5042    0.0776    0.0057 C   0  0  0  0  0  0  0  0  0  0  0  0
   34.7241    0.0741   -0.0005 C   0  0  0  0  0  0  0  0  0  0  0  0
   44.5807    0.0340   -0.0200 C   0  0  0  0  0  0  0  0  0  0  0  0
   45.8008    0.0312   -0.0171 C   0  0  0  0  0  0  0  0  0  0  0  0
   47.1375    0.0304   -0.0183 C   0  0  0  0  0  0  0  0  0  0  0  0
   48.3618    0.0283   -0.0152 C   0  0  0  0  0  0  0  0  0  0  0  0
   49.6985    0.0305   -0.0165 C   0  0  0  0  0  0  0  0  0  0  0  0
   50.9186    0.0327   -0.0180 C   0  0  0  0  0  0  0  0  0  0  0  0
   60.7764    0.0435   -0.0223 C   0  0  0  0  0  0  0  0  0  0  0  0
   61.9965    0.0450   -0.0215 C   0  0  0  0  0  0  0  0  0  0  0  0
   63.3332    0.0464   -0.0215 C   0  0  0  0  0  0  0  0  0  0  0  0
   64.5576    0.0470   -0.0205 C   0  0  0  0  0  0  0  0  0  0  0  0
   65.8942    0.0455   -0.0200 C   0  0  0  0  0  0  0  0  0  0  0  0
   67.1143    0.0447   -0.0197 C   0  0  0  0  0  0  0  0  0  0  0  0
   76.9710   -0.0145   -0.0175 C   0  0  0  0  0  0  0  0  0  0  0  0
   78.1908   -0.0234   -0.0146 C   0  0  0  0  0  0  0  0  0  0  0  0
   79.5278   -0.0301   -0.0126 C   0  0  0  0  0  0  0  0  0  0  0  0
   80.7519   -0.0342   -0.0089 C   0  0  0  0  0  0  0  0  0  0  0  0
   82.0889   -0.0334   -0.0065 C   0  0  0  0  0  0  0  0  0  0  0  0
   83.3086   -0.0275   -0.0029 C   0  0  0  0  0  0  0  0  0  0  0  0
   39.6522    0.0526   -0.0192 Fe  0  0  0  0  0  0  0  0  0  0  0  0
   37.1720   -3.3279    0.3763 C   0  0  0  0  0  0  0  0  0  0  0  0
   36.1731   -2.4194    0.2770 C   0  0  0  0  0  0  0  0  0  0  0  0
   36.8045   -1.1441    0.1290 C   0  0  0  0  0  0  0  0  0  0  0  0
   36.1193    0.0681   -0.0066 C   0  0  0  0  0  0  0  0  0  0  0  0
   36.8141    1.2739   -0.1495 C   0  0  0  0  0  0  0  0  0  0  0  0
   36.1927    2.5542   -0.2967 C   0  0  0  0  0  0  0  0  0  0  0  0
   37.1987    3.4535   -0.4078 C   0  0  0  0  0  0  0  0  0  0  0  0
   38.4264    2.7163   -0.3272 C   0  0  0  0  0  0  0  0  0  0  0  0
   38.1699    1.3794   -0.1686 N   0  0  0  0  0  0  0  0  0  0  0  0
   39.6652    3.3217   -0.4041 C   0  0  0  0  0  0  0  0  0  0  0  0
   40.8992    2.7057   -0.3348 C   0  0  0  0  0  0  0  0  0  0  0  0
   42.1326    3.4322   -0.4232 C   0  0  0  0  0  0  0  0  0  0  0  0
   43.1315    2.5246   -0.3160 C   0  0  0  0  0  0  0  0  0  0  0  0
   42.5002    1.2499   -0.1634 C   0  0  0  0  0  0  0  0  0  0  0  0
   41.1453    1.3668   -0.1760 N   0  0  0  0  0  0  0  0  0  0  0  0
   43.1856    0.0385   -0.0206 C   0  0  0  0  0  0  0  0  0  0  0  0
   42.4908   -1.1678    0.1197 C   0  0  0  0  0  0  0  0  0  0  0  0
   43.1121   -2.4482    0.2664 C   0  0  0  0  0  0  0  0  0  0  0  0
   42.1060   -3.3484    0.3694 C   0  0  0  0  0  0  0  0  0  0  0  0
   40.8783   -2.6115    0.2853 C   0  0  0  0  0  0  0  0  0  0  0  0
   41.1350   -1.2740    0.1320 N   0  0  0  0  0  0  0  0  0  0  0  0
   39.6395   -3.2175    0.3562 C   0  0  0  0  0  0  0  0  0  0  0  0
   38.4055   -2.6012    0.2889 C   0  0  0  0  0  0  0  0  0  0  0  0
   38.1594   -1.2615    0.1371 N   0  0  0  0  0  0  0  0  0  0  0  0
   37.0997   -4.3914    0.4976 H   0  0  0  0  0  0  0  0  0  0  0  0
   35.1121   -2.5757    0.2990 H   0  0  0  0  0  0  0  0  0  0  0  0
   35.1330    2.7197   -0.3109 H   0  0  0  0  0  0  0  0  0  0  0  0
   37.1347    4.5171   -0.5327 H   0  0  0  0  0  0  0  0  0  0  0  0
   39.6694    4.3951   -0.5313 H   0  0  0  0  0  0  0  0  0  0  0  0
   42.2051    4.4952   -0.5500 H   0  0  0  0  0  0  0  0  0  0  0  0
   44.1926    2.6811   -0.3359 H   0  0  0  0  0  0  0  0  0  0  0  0
   44.1719   -2.6133    0.2853 H   0  0  0  0  0  0  0  0  0  0  0  0
   42.1699   -4.4123    0.4913 H   0  0  0  0  0  0  0  0  0  0  0  0
   39.6351   -4.2915    0.4787 H   0  0  0  0  0  0  0  0  0  0  0  0
   55.8475    0.0381   -0.0214 Fe  0  0  0  0  0  0  0  0  0  0  0  0
   53.3843   -3.3561    0.3631 C   0  0  0  0  0  0  0  0  0  0  0  0
   52.3807   -2.4535    0.2577 C   0  0  0  0  0  0  0  0  0  0  0  0
   53.0054   -1.1742    0.1154 C   0  0  0  0  0  0  0  0  0  0  0  0
   52.3138    0.0346   -0.0193 C   0  0  0  0  0  0  0  0  0  0  0  0
   53.0027    1.2447   -0.1552 C   0  0  0  0  0  0  0  0  0  0  0  0
   52.3753    2.5226   -0.2972 C   0  0  0  0  0  0  0  0  0  0  0  0
   53.3770    3.4271   -0.4045 C   0  0  0  0  0  0  0  0  0  0  0  0
   54.6082    2.6954   -0.3272 C   0  0  0  0  0  0  0  0  0  0  0  0
   54.3580    1.3567   -0.1729 N   0  0  0  0  0  0  0  0  0  0  0  0
   55.8440    3.3065   -0.4067 C   0  0  0  0  0  0  0  0  0  0  0  0
   57.0811    2.6962   -0.3421 C   0  0  0  0  0  0  0  0  0  0  0  0
   58.3107    3.4285   -0.4371 C   0  0  0  0  0  0  0  0  0  0  0  0
   59.3143    2.5260   -0.3308 C   0  0  0  0  0  0  0  0  0  0  0  0
   58.6896    1.2488   -0.1716 C   0  0  0  0  0  0  0  0  0  0  0  0
   57.3341    1.3589   -0.1807 N   0  0  0  0  0  0  0  0  0  0  0  0
   59.3813    0.0418   -0.0222 C   0  0  0  0  0  0  0  0  0  0  0  0
   58.6923   -1.1668    0.1270 C   0  0  0  0  0  0  0  0  0  0  0  0
   59.3197   -2.4429    0.2852 C   0  0  0  0  0  0  0  0  0  0  0  0
   58.3180   -3.3475    0.3916 C   0  0  0  0  0  0  0  0  0  0  0  0
   57.0869   -2.6177    0.2975 C   0  0  0  0  0  0  0  0  0  0  0  0
   57.3371   -1.2798    0.1365 N   0  0  0  0  0  0  0  0  0  0  0  0
   55.8510   -3.2305    0.3628 C   0  0  0  0  0  0  0  0  0  0  0  0
   54.6139   -2.6218    0.2848 C   0  0  0  0  0  0  0  0  0  0  0  0
   54.3609   -1.2835    0.1314 N   0  0  0  0  0  0  0  0  0  0  0  0
   53.3180   -4.4201    0.4830 H   0  0  0  0  0  0  0  0  0  0  0  0
   51.3205   -2.6162    0.2721 H   0  0  0  0  0  0  0  0  0  0  0  0
   51.3148    2.6831   -0.3107 H   0  0  0  0  0  0  0  0  0  0  0  0
   53.3085    4.4910   -0.5252 H   0  0  0  0  0  0  0  0  0  0  0  0
   55.8429    4.3800   -0.5333 H   0  0  0  0  0  0  0  0  0  0  0  0
   58.3770    4.4914   -0.5675 H   0  0  0  0  0  0  0  0  0  0  0  0
   60.3745    2.6875   -0.3551 H   0  0  0  0  0  0  0  0  0  0  0  0
   60.3803   -2.6022    0.3089 H   0  0  0  0  0  0  0  0  0  0  0  0
   58.3866   -4.4102    0.5216 H   0  0  0  0  0  0  0  0  0  0  0  0
   55.8522   -4.3040    0.4890 H   0  0  0  0  0  0  0  0  0  0  0  0
   72.0428    0.0157   -0.0200 Fe  0  0  0  0  0  0  0  0  0  0  0  0
   69.5551   -3.3585    0.3844 C   0  0  0  0  0  0  0  0  0  0  0  0
   68.5581   -2.4485    0.2786 C   0  0  0  0  0  0  0  0  0  0  0  0
   69.1922   -1.1753    0.1251 C   0  0  0  0  0  0  0  0  0  0  0  0
   68.5094    0.0374   -0.0196 C   0  0  0  0  0  0  0  0  0  0  0  0
   69.2068    1.2416   -0.1643 C   0  0  0  0  0  0  0  0  0  0  0  0
   68.5883    2.5225   -0.3176 C   0  0  0  0  0  0  0  0  0  0  0  0
   69.5964    3.4201   -0.4241 C   0  0  0  0  0  0  0  0  0  0  0  0
   70.8224    2.6812   -0.3350 C   0  0  0  0  0  0  0  0  0  0  0  0
   70.5629    1.3449   -0.1762 N   0  0  0  0  0  0  0  0  0  0  0  0
   72.0626    3.2847   -0.4041 C   0  0  0  0  0  0  0  0  0  0  0  0
   73.2953    2.6667   -0.3289 C   0  0  0  0  0  0  0  0  0  0  0  0
   74.5304    3.3914   -0.4106 C   0  0  0  0  0  0  0  0  0  0  0  0
   75.5273    2.4816   -0.3030 C   0  0  0  0  0  0  0  0  0  0  0  0
   74.8932    1.2075   -0.1565 C   0  0  0  0  0  0  0  0  0  0  0  0
   73.5384    1.3270   -0.1725 N   0  0  0  0  0  0  0  0  0  0  0  0
   75.5757   -0.0058   -0.0189 C   0  0  0  0  0  0  0  0  0  0  0  0
   74.8783   -1.2109    0.1174 C   0  0  0  0  0  0  0  0  0  0  0  0
   75.4969   -2.4927    0.2632 C   0  0  0  0  0  0  0  0  0  0  0  0
   74.4889   -3.3904    0.3695 C   0  0  0  0  0  0  0  0  0  0  0  0
   73.2628   -2.6506    0.2879 C   0  0  0  0  0  0  0  0  0  0  0  0
   73.5223   -1.3139    0.1325 N   0  0  0  0  0  0  0  0  0  0  0  0
   72.0227   -3.2535    0.3630 C   0  0  0  0  0  0  0  0  0  0  0  0
   70.7901   -2.6347    0.2947 C   0  0  0  0  0  0  0  0  0  0  0  0
   70.5469   -1.2953    0.1364 N   0  0  0  0  0  0  0  0  0  0  0  0
   69.4804   -4.4212    0.5112 H   0  0  0  0  0  0  0  0  0  0  0  0
   67.4968   -2.6027    0.2997 H   0  0  0  0  0  0  0  0  0  0  0  0
   67.5289    2.6896   -0.3381 H   0  0  0  0  0  0  0  0  0  0  0  0
   69.5347    4.4837   -0.5510 H   0  0  0  0  0  0  0  0  0  0  0  0
   72.0693    4.3582   -0.5306 H   0  0  0  0  0  0  0  0  0  0  0  0
   74.6050    4.4545   -0.5342 H   0  0  0  0  0  0  0  0  0  0  0  0
   76.5887    2.6363   -0.3191 H   0  0  0  0  0  0  0  0  0  0  0  0
   76.5563   -2.6603    0.2798 H   0  0  0  0  0  0  0  0  0  0  0  0
   74.5505   -4.4544    0.4922 H   0  0  0  0  0  0  0  0  0  0  0  0
   72.0162   -4.3271    0.4889 H   0  0  0  0  0  0  0  0  0  0  0  0
  2  3  2  0  0  0  0
  3  4  1  0  0  0  0
  4  5  4  0  0  0  0
  5  6  4  0  0  0  0
  6  7  1  0  0  0  0
  7  8  2  0  0  0  0
  8  9  1  0  0  0  0
  1 10  1  0  0  0  0
  6 10  4  0  0  0  0
  9 10  4  0  0  0  0
  9 11  4  0  0  0  0
 11 12  4  0  0  0  0
 12 13  1  0  0  0  0
 13 14  2  0  0  0  0
 14 15  1  0  0  0  0
  1 16  1  0  0  0  0
 12 16  4  0  0  0  0
 15 16  4  0  0  0  0
 15 17  4  0  0  0  0
 17 18  4  0  0  0  0
 18 19  1  0  0  0  0
 19 20  2  0  0  0  0
 20 21  1  0  0  0  0
  1 22  1  0  0  0  0
 18 22  4  0  0  0  0
 21 22  4  0  0  0  0
 21 23  4  0  0  0  0
  2 24  1  0  0  0  0
 23 24  4  0  0  0  0
  1 25  1  0  0  0  0
  4 25  4  0  0  0  0
 24 25  4  0  0  0  0
  2 26  1  0  0  0  0
  3 27  1  0  0  0  0
  7 28  1  0  0  0  0
  8 29  1  0  0  0  0
 11 30  1  0  0  0  0
 13 31  1  0  0  0  0
 14 32  1  0  0  0  0
 17 33  1  0  0  0  0
 19 34  1  0  0  0  0
 20 35  1  0  0  0  0
 23 36  1  0  0  0  0
 38 39  2  0  0  0  0
 39 40  1  0  0  0  0
 40 41  4  0  0  0  0
 41 42  4  0  0  0  0
 42 43  1  0  0  0  0
 43 44  2  0  0  0  0
 44 45  1  0  0  0  0
 37 46  1  0  0  0  0
 42 46  4  0  0  0  0
 45 46  4  0  0  0  0
 45 47  4  0  0  0  0
 47 48  4  0  0  0  0
 48 49  1  0  0  0  0
 49 50  2  0  0  0  0
 50 51  1  0  0  0  0
 37 52  1  0  0  0  0
 48 52  4  0  0  0  0
 51 52  4  0  0  0  0
 51 53  4  0  0  0  0
 53 54  4  0  0  0  0
 54 55  1  0  0  0  0
 55 56  2  0  0  0  0
 56 57  1  0  0  0  0
 37 58  1  0  0  0  0
 54 58  4  0  0  0  0
 57 58  4  0  0  0  0
 57 59  4  0  0  0  0
 38 60  1  0  0  0  0
 59 60  4  0  0  0  0
 37 61  1  0  0  0  0
 40 61  4  0  0  0  0
 60 61  4  0  0  0  0
 38 62  1  0  0  0  0
 39 63  1  0  0  0  0
 43 64  1  0  0  0  0
 44 65  1  0  0  0  0
 47 66  1  0  0  0  0
 49 67  1  0  0  0  0
 50 68  1  0  0  0  0
 53 69  1  0  0  0  0
 55 70  1  0  0  0  0
 56 71  1  0  0  0  0
 59 72  1  0  0  0  0
  5 73  1  0  0  0  0
 73 74  3  0  0  0  0
 74 75  4  0  0  0  0
 75 76  3  0  0  0  0
 76 77  4  0  0  0  0
 77 78  3  0  0  0  0
 79 80  3  0  0  0  0
 80 81  4  0  0  0  0
 81 82  3  0  0  0  0
 82 83  4  0  0  0  0
 83 84  3  0  0  0  0
 85 86  3  0  0  0  0
 86 87  4  0  0  0  0
 87 88  3  0  0  0  0
 88 89  4  0  0  0  0
 89 90  3  0  0  0  0
 91 92  3  0  0  0  0
 92 93  4  0  0  0  0
 93 94  3  0  0  0  0
 94 95  4  0  0  0  0
 41 96  1  0  0  0  0
 95 96  3  0  0  0  0
 98 99  2  0  0  0  0
 99100  1  0  0  0  0
 78101  1  0  0  0  0
100101  4  0  0  0  0
101102  4  0  0  0  0
102103  1  0  0  0  0
103104  2  0  0  0  0
104105  1  0  0  0  0
 97106  1  0  0  0  0
102106  4  0  0  0  0
105106  4  0  0  0  0
105107  4  0  0  0  0
107108  4  0  0  0  0
108109  1  0  0  0  0
109110  2  0  0  0  0
110111  1  0  0  0  0
 97112  1  0  0  0  0
108112  4  0  0  0  0
111112  4  0  0  0  0
 79113  1  0  0  0  0
111113  4  0  0  0  0
113114  4  0  0  0  0
114115  1  0  0  0  0
115116  2  0  0  0  0
116117  1  0  0  0  0
 97118  1  0  0  0  0
114118  4  0  0  0  0
117118  4  0  0  0  0
117119  4  0  0  0  0
 98120  1  0  0  0  0
119120  4  0  0  0  0
 97121  1  0  0  0  0
100121  4  0  0  0  0
120121  4  0  0  0  0
 98122  1  0  0  0  0
 99123  1  0  0  0  0
103124  1  0  0  0  0
104125  1  0  0  0  0
107126  1  0  0  0  0
109127  1  0  0  0  0
110128  1  0  0  0  0
115129  1  0  0  0  0
116130  1  0  0  0  0
119131  1  0  0  0  0
133134  2  0  0  0  0
134135  1  0  0  0  0
 84136  1  0  0  0  0
135136  4  0  0  0  0
136137  4  0  0  0  0
137138  1  0  0  0  0
138139  2  0  0  0  0
139140  1  0  0  0  0
132141  1  0  0  0  0
137141  4  0  0  0  0
140141  4  0  0  0  0
140142  4  0  0  0  0
142143  4  0  0  0  0
143144  1  0  0  0  0
144145  2  0  0  0  0
145146  1  0  0  0  0
132147  1  0  0  0  0
143147  4  0  0  0  0
146147  4  0  0  0  0
 85148  1  0  0  0  0
146148  4  0  0  0  0
148149  4  0  0  0  0
149150  1  0  0  0  0
150151  2  0  0  0  0
151152  1  0  0  0  0
132153  1  0  0  0  0
149153  4  0  0  0  0
152153  4  0  0  0  0
152154  4  0  0  0  0
133155  1  0  0  0  0
154155  4  0  0  0  0
132156  1  0  0  0  0
135156  4  0  0  0  0
155156  4  0  0  0  0
133157  1  0  0  0  0
134158  1  0  0  0  0
138159  1  0  0  0  0
139160  1  0  0  0  0
142161  1  0  0  0  0
144162  1  0  0  0  0
145163  1  0  0  0  0
150164  1  0  0  0  0
151165  1  0  0  0  0
154166  1  0  0  0  0
168169  2  0  0  0  0
169170  1  0  0  0  0
 90171  1  0  0  0  0
170171  4  0  0  0  0
171172  4  0  0  0  0
172173  1  0  0  0  0
173174  2  0  0  0  0
174175  1  0  0  0  0
167176  1  0  0  0  0
172176  4  0  0  0  0
175176  4  0  0  0  0
175177  4  0  0  0  0
177178  4  0  0  0  0
178179  1  0  0  0  0
179180  2  0  0  0  0
180181  1  0  0  0  0
167182  1  0  0  0  0
178182  4  0  0  0  0
181182  4  0  0  0  0
 91183  1  0  0  0  0
181183  4  0  0  0  0
183184  4  0  0  0  0
184185  1  0  0  0  0
185186  2  0  0  0  0
186187  1  0  0  0  0
167188  1  0  0  0  0
184188  4  0  0  0  0
187188  4  0  0  0  0
187189  4  0  0  0  0
168190  1  0  0  0  0
189190  4  0  0  0  0
167191  1  0  0  0  0
170191  4  0  0  0  0
190191  4  0  0  0  0
168192  1  0  0  0  0
169193  1  0  0  0  0
173194  1  0  0  0  0
174195  1  0  0  0  0
177196  1  0  0  0  0
179197  1  0  0  0  0
180198  1  0  0  0  0
185199  1  0  0  0  0
186200  1  0  0  0  0
189201  1  0  0  0  0
M  END
