154
 xtb: 6.4.1 (bd6e46d)
Ni       21.73746965942074   -0.00092494709988   -0.01026351172445
C        24.23612768602672   -3.41169817170799    0.05556624389646
C        25.18776451075890   -2.45117272711847    0.05206250176251
C        24.49839825361431   -1.19642380284485    0.02314714319076
C        25.16483318637113    0.03238996901968    0.00270889013392
C        24.47609826342612    1.24884891633682   -0.01429793119086
C        25.14181991899740    2.51653188522435   -0.02585961461279
C        24.17229717956872    3.45900869909567   -0.02026138735524
C        22.92227712724396    2.76002642455391   -0.00758195744938
N        23.12342595443283    1.40531133436087   -0.00698743004307
C        21.70153330668813    3.40240453390475    0.00657285489903
C        20.49440107243754    2.73469283555614    0.00726625530647
C        19.22653784404017    3.40608226787817    0.01383114272959
C        18.28026485063522    2.44271364460594   -0.00627622019523
C        18.97423922019214    1.18683386282830   -0.02296756138526
N        20.32615912607859    1.37912507911585   -0.01146829699521
C        18.32742845285532   -0.03180441888288   -0.05196214347604
C        18.99728373143505   -1.23826757400434   -0.05782311042882
C        18.32743027485169   -2.50708818590544   -0.08085778203178
C        19.29151195148405   -3.45266231539303   -0.06161618351251
C        20.54607701449106   -2.75748064288864   -0.02878582701763
N        20.35235591237095   -1.40540015722193   -0.03006546457097
C        21.76519855816307   -3.40214364579889    0.00509654237084
C        22.97331644794646   -2.73660224209786    0.02705313726461
N        23.14907002217999   -1.37849446574722    0.01129078691218
H        24.35426351634894   -4.47726770932315    0.07577176207303
H        26.25476189014034   -2.55580042090912    0.06800592039326
H        26.20733154750831    2.64156506190424   -0.03337380713588
H        24.27158580504642    4.52739413012645   -0.02161133414971
H        21.69207423817312    4.48226332899226    0.01658984331390
H        19.10573473370811    4.47289819994611    0.03122924467581
H        17.21258564831463    2.54613035759633   -0.01111545240178
H        17.24845163270872   -0.04055963775904   -0.07024023083831
H        17.26156456635307   -2.62807463077963   -0.10891948416537
H        19.18982798383693   -4.51973231973120   -0.06870756920348
H        21.77494340311718   -4.48067015403455    0.01346765844456
Ni       62.03877187659585    0.03692278288775    0.00879049849375
C        59.55097425511956    3.39416080931230    0.65295985860195
C        58.59648273652865    2.45596022086939    0.46066239935954
C        59.28228981869504    1.22002587995799    0.22921521233195
C        58.61181449241064    0.01097205347885    0.02196718980673
C        59.29647710488724   -1.19377450610211   -0.16315723009283
C        58.62745747917362   -2.44759017186372   -0.33764602201204
C        59.59446409109663   -3.38231112819057   -0.47986735954861
C        60.84627410919228   -2.69122762679814   -0.39874372849152
N        60.64881085324900   -1.35074288150556   -0.19713583687209
C        62.06501457699825   -3.32401670770471   -0.53223716781287
C        63.27310406388515   -2.65817732239674   -0.48740784841430
C        64.53759395305491   -3.31313835125632   -0.66341010707742
C        65.48575345280989   -2.35464072217501   -0.56821261985505
C        64.79671708937380   -1.11956744483742   -0.32661287354493
N        63.44519665809356   -1.31765937097174   -0.28537272276424
C        65.44722316317674    0.08390419673599   -0.14326640044925
C        64.78207947816418    1.26369783579547    0.12263120757077
C        65.45701030448940    2.50915106027330    0.35216377217890
C        64.49673392151774    3.42983302258953    0.59011180256412
C        63.23940984307292    2.74457457819197    0.49672700452152
N        63.42803612431782    1.42146974660401    0.21374571261405
C        62.02227045266608    3.37581613318041    0.65286244262882
C        60.81186705248215    2.72607167284961    0.52929697110372
N        60.63218638736616    1.39319262719458    0.27123324712618
H        59.43463080206398    4.45173573647649    0.79357927265715
H        57.52883021189349    2.56895425385750    0.43699483468868
H        57.56206919840714   -2.56442840054246   -0.38049846052328
H        59.49271332317598   -4.42989368212845   -0.69112590608868
H        62.07201755209002   -4.38320518543778   -0.74155332823346
H        64.65666507186320   -4.36530518083480   -0.83474735677764
H        66.55455502118275   -2.46059286026970   -0.57160787936229
H        66.52736429319076    0.08408659941378   -0.10310676359364
H        66.52331692193390    2.62136222380327    0.40467693329892
H        64.60081434652352    4.47641880971524    0.80714635558127
H        62.01441804907880    4.44286346125562    0.81809083720852
C        26.56230781410476    0.04394456132569    0.00245862673919
C        27.77984770490660    0.05977107016300    0.00279917132969
C        29.12205193750873    0.06591801703028   -0.00051068667013
C        30.33980356878808    0.06904541948069   -0.00387370911695
C        39.99968513417971    0.05437617471117   -0.01763788813434
C        41.21756561405472    0.04623299536758   -0.01864091123716
C        42.55936996226071    0.03757791400217   -0.02038187266003
C        43.77722140025796    0.02725255977874   -0.02314821001205
C        53.43662857596436   -0.01184330486554   -0.01040492496253
C        54.65430882821418   -0.00756698740461   -0.00307262896562
C        55.99662999490244   -0.00681335682245    0.00573369418238
C        57.21416517775985    0.00510904987702    0.01414269749888
Ni       35.17003935805774    0.06466145111546   -0.00894664071572
C        32.69504026749716   -3.34449698168019    0.39879633769683
C        31.73515999391633   -2.39801216833925    0.29163084853255
C        32.41397806051409   -1.14683540814340    0.13829476770844
C        31.73676285283328    0.06804889443067   -0.00619353985231
C        32.41702850487968    1.28066001514099   -0.15371806627927
C        31.74143643240383    2.53373591745313   -0.30615465076713
C        32.70385866740815    3.47715201175233   -0.41776532265262
C        33.95851457126315    2.79272491108111   -0.33255191477058
N        33.76792859416435    1.44607779743874   -0.17203891539508
C        35.17436881050395    3.43976232536855   -0.40272457984366
C        36.38845628175213    2.79074235987803   -0.32237742861627
C        37.64495938711458    3.47332251286065   -0.39502941214537
C        38.60484124294100    2.52695690804523   -0.28673544500985
C        37.92596642590687    1.27400831122373   -0.14888312274698
N        36.57552422207286    1.44262857143155   -0.16988557169416
C        38.60302119507030    0.05774801791704   -0.01620429025435
C        37.92255816348166   -1.15664588828509    0.11742921575934
C        38.59816043383042   -2.41177330762682    0.25198320933170
C        37.63580446273286   -3.35546429288996    0.36146687237719
C        36.38119993131314   -2.66914307581031    0.29283854852382
N        36.57181619885465   -1.32110764278472    0.14181411380722
C        35.16547065042231   -3.31463190683609    0.37585208524123
C        33.95141675293850   -2.66376034150686    0.31010887749565
N        33.76446629049567   -1.31614131833042    0.15221262457965
H        32.58510673459736   -4.40496236692017    0.52211693194842
H        30.66837932130738   -2.51080314783638    0.30936679457282
H        30.67541201039562    2.64846172344144   -0.32391735706134
H        32.59754051151478    4.53583700619641   -0.54812388204244
H        35.17618940613224    4.51064195148057   -0.52997493938865
H        37.75485914613478    4.53229780333452   -0.51539152998749
H        39.67158061773496    2.63868887693346   -0.29732192591203
H        39.66398863486271   -2.52981362579353    0.25762189032741
H        37.74199452666082   -4.41792423888748    0.47476832352631
H        35.16341309781398   -4.38833978016574    0.49493145613722
Ni       48.60678926064303    0.00610516254594   -0.04081557258307
C        46.12255073073154   -3.39419802902609    0.38581719301014
C        45.16535195397139   -2.44409884971306    0.28648922987207
C        45.84756925047770   -1.19563728581573    0.12617169129965
C        45.17388066825671    0.02028150841000   -0.02579591321140
C        45.85777230455309    1.22993285992273   -0.18244241299269
C        45.18581803007725    2.48337599909861   -0.34716534958805
C        46.15083502237274    3.42450814804779   -0.45515825509720
C        47.40342545880947    2.73841692122976   -0.35459956480532
N        47.20900964119274    1.39243245612774   -0.19294684772531
C        48.62075225554003    3.38421431494732   -0.40518844925684
C        49.83270622008638    2.73348423132883   -0.30741535532772
C        51.09081223857736    3.41528669072006   -0.35358473081299
C        52.04799047757136    2.46657050125907   -0.24222474762410
C        51.36580117546012    1.21278828547646   -0.13014347001630
N        50.01592599038882    1.38363649633982   -0.16688301745475
C        52.03956345487636   -0.00730101608990   -0.01793545457484
C        51.35598646832120   -1.22255229054991    0.08598703456443
C        52.02799033470472   -2.48192261789110    0.19653120864867
C        51.06297565650821   -3.42418768155893    0.29495546360722
C        49.81031957561711   -2.73270790666898    0.24413431888282
N        50.00459290981235   -1.38348822617726    0.11053736127768
C        48.59283193898666   -3.37434954569098    0.33385359138935
C        47.38077367473952   -2.71828720180328    0.28625119478881
N        47.19742990149807   -1.36974523913839    0.13058260230878
H        46.01062487822145   -4.45316179806949    0.52417760992340
H        44.09886069273181   -2.55302942666737    0.32045410281695
H        44.11968423819141    2.59987222824415   -0.36705794056637
H        46.04658776492094    4.48370243927812   -0.57852499347355
H        48.62468891733096    4.45718235498724   -0.51443123188125
H        51.20262421934231    4.47718037935814   -0.44928342734194
H        53.11438482610375    2.57850174954382   -0.23313258909054
H        53.09401958680336   -2.60167855982245    0.20156140710892
H        51.16714258559410   -4.48671620279273    0.40394079012433
H        48.58897054571602   -4.44710915270721    0.46075187293629
