
  xtb     11202115543D
 xtb: 6.4.1 (bd6e46d)
119142  0     0  0            999 V2000
   11.9195   -0.0045   -0.0110 Zn  0  0  0  0  0  0  0  0  0  0  0  0
   14.4479   -3.4431   -0.0040 C   0  0  0  0  0  0  0  0  0  0  0  0
   15.4026   -2.4816   -0.0042 C   0  0  0  0  0  0  0  0  0  0  0  0
   14.7152   -1.2218   -0.0061 C   0  0  0  0  0  0  0  0  0  0  0  0
   15.3559    0.0284   -0.0066 C   0  0  0  0  0  0  0  0  0  0  0  0
   14.6917    1.2661   -0.0071 C   0  0  0  0  0  0  0  0  0  0  0  0
   15.3548    2.5388   -0.0047 C   0  0  0  0  0  0  0  0  0  0  0  0
   14.3819    3.4819   -0.0044 C   0  0  0  0  0  0  0  0  0  0  0  0
   13.1281    2.7830   -0.0069 C   0  0  0  0  0  0  0  0  0  0  0  0
   13.3484    1.4380   -0.0083 N   0  0  0  0  0  0  0  0  0  0  0  0
   11.8878    3.3989   -0.0086 C   0  0  0  0  0  0  0  0  0  0  0  0
   10.6600    2.7582   -0.0127 C   0  0  0  0  0  0  0  0  0  0  0  0
    9.3876    3.4279   -0.0162 C   0  0  0  0  0  0  0  0  0  0  0  0
    8.4394    2.4623   -0.0205 C   0  0  0  0  0  0  0  0  0  0  0  0
    9.1317    1.2017   -0.0191 C   0  0  0  0  0  0  0  0  0  0  0  0
   10.4739    1.4121   -0.0145 N   0  0  0  0  0  0  0  0  0  0  0  0
    8.5114   -0.0371   -0.0215 C   0  0  0  0  0  0  0  0  0  0  0  0
    9.1552   -1.2638   -0.0187 C   0  0  0  0  0  0  0  0  0  0  0  0
    8.4870   -2.5374   -0.0196 C   0  0  0  0  0  0  0  0  0  0  0  0
    9.4535   -3.4847   -0.0150 C   0  0  0  0  0  0  0  0  0  0  0  0
   10.7129   -2.7908   -0.0116 C   0  0  0  0  0  0  0  0  0  0  0  0
   10.5011   -1.4485   -0.0139 N   0  0  0  0  0  0  0  0  0  0  0  0
   11.9527   -3.4079   -0.0077 C   0  0  0  0  0  0  0  0  0  0  0  0
   13.1810   -2.7683   -0.0062 C   0  0  0  0  0  0  0  0  0  0  0  0
   13.3755   -1.4194   -0.0073 N   0  0  0  0  0  0  0  0  0  0  0  0
   14.5750   -4.5085   -0.0027 H   0  0  0  0  0  0  0  0  0  0  0  0
   16.4693   -2.5970   -0.0031 H   0  0  0  0  0  0  0  0  0  0  0  0
   16.4191    2.6746   -0.0033 H   0  0  0  0  0  0  0  0  0  0  0  0
   14.4885    4.5495   -0.0027 H   0  0  0  0  0  0  0  0  0  0  0  0
   11.8783    4.4801   -0.0072 H   0  0  0  0  0  0  0  0  0  0  0  0
    9.2570    4.4931   -0.0155 H   0  0  0  0  0  0  0  0  0  0  0  0
    7.3720    2.5736   -0.0242 H   0  0  0  0  0  0  0  0  0  0  0  0
    7.4304   -0.0474   -0.0255 H   0  0  0  0  0  0  0  0  0  0  0  0
    7.4220   -2.6691   -0.0232 H   0  0  0  0  0  0  0  0  0  0  0  0
    9.3433   -4.5522   -0.0141 H   0  0  0  0  0  0  0  0  0  0  0  0
   11.9640   -4.4891   -0.0062 H   0  0  0  0  0  0  0  0  0  0  0  0
   43.9314    0.0265   -0.0076 Zn  0  0  0  0  0  0  0  0  0  0  0  0
   41.4123    3.4170    0.6063 C   0  0  0  0  0  0  0  0  0  0  0  0
   40.4550    2.4733    0.4362 C   0  0  0  0  0  0  0  0  0  0  0  0
   41.1389    1.2317    0.2119 C   0  0  0  0  0  0  0  0  0  0  0  0
   40.4949    0.0027   -0.0069 C   0  0  0  0  0  0  0  0  0  0  0  0
   41.1557   -1.2176   -0.2247 C   0  0  0  0  0  0  0  0  0  0  0  0
   40.4890   -2.4688   -0.4480 C   0  0  0  0  0  0  0  0  0  0  0  0
   41.4593   -3.3993   -0.6171 C   0  0  0  0  0  0  0  0  0  0  0  0
   42.7150   -2.7144   -0.4965 C   0  0  0  0  0  0  0  0  0  0  0  0
   42.4985   -1.3901   -0.2580 N   0  0  0  0  0  0  0  0  0  0  0  0
   43.9537   -3.3234   -0.6095 C   0  0  0  0  0  0  0  0  0  0  0  0
   45.1832   -2.6953   -0.5009 C   0  0  0  0  0  0  0  0  0  0  0  0
   46.4537   -3.3570   -0.6248 C   0  0  0  0  0  0  0  0  0  0  0  0
   47.4046   -2.4085   -0.4581 C   0  0  0  0  0  0  0  0  0  0  0  0
   46.7158   -1.1665   -0.2318 C   0  0  0  0  0  0  0  0  0  0  0  0
   45.3730   -1.3709   -0.2634 N   0  0  0  0  0  0  0  0  0  0  0  0
   47.3395    0.0514   -0.0148 C   0  0  0  0  0  0  0  0  0  0  0  0
   46.6991    1.2599    0.2057 C   0  0  0  0  0  0  0  0  0  0  0  0
   47.3707    2.5118    0.4291 C   0  0  0  0  0  0  0  0  0  0  0  0
   46.4068    3.4460    0.6017 C   0  0  0  0  0  0  0  0  0  0  0  0
   45.1456    2.7658    0.4834 C   0  0  0  0  0  0  0  0  0  0  0  0
   45.3536    1.4445    0.2441 N   0  0  0  0  0  0  0  0  0  0  0  0
   43.9074    3.3759    0.5968 C   0  0  0  0  0  0  0  0  0  0  0  0
   42.6774    2.7496    0.4852 C   0  0  0  0  0  0  0  0  0  0  0  0
   42.4791    1.4226    0.2459 N   0  0  0  0  0  0  0  0  0  0  0  0
   41.2882    4.4658    0.7956 H   0  0  0  0  0  0  0  0  0  0  0  0
   39.3886    2.5897    0.4575 H   0  0  0  0  0  0  0  0  0  0  0  0
   39.4243   -2.5998   -0.4700 H   0  0  0  0  0  0  0  0  0  0  0  0
   41.3497   -4.4497   -0.8060 H   0  0  0  0  0  0  0  0  0  0  0  0
   43.9601   -4.3875   -0.8008 H   0  0  0  0  0  0  0  0  0  0  0  0
   46.5814   -4.4056   -0.8141 H   0  0  0  0  0  0  0  0  0  0  0  0
   48.4717   -2.5202   -0.4825 H   0  0  0  0  0  0  0  0  0  0  0  0
   48.4204    0.0593   -0.0176 H   0  0  0  0  0  0  0  0  0  0  0  0
   48.4361    2.6393    0.4478 H   0  0  0  0  0  0  0  0  0  0  0  0
   46.5200    4.4963    0.7909 H   0  0  0  0  0  0  0  0  0  0  0  0
   43.8991    4.4398    0.7893 H   0  0  0  0  0  0  0  0  0  0  0  0
   16.7535    0.0407   -0.0064 C   0  0  0  0  0  0  0  0  0  0  0  0
   17.9735    0.0506   -0.0044 C   0  0  0  0  0  0  0  0  0  0  0  0
   19.3097    0.0570   -0.0068 C   0  0  0  0  0  0  0  0  0  0  0  0
   20.5342    0.0583   -0.0015 C   0  0  0  0  0  0  0  0  0  0  0  0
   21.8703    0.0573   -0.0037 C   0  0  0  0  0  0  0  0  0  0  0  0
   23.0904    0.0521   -0.0009 C   0  0  0  0  0  0  0  0  0  0  0  0
   32.7602   -0.0119   -0.0100 C   0  0  0  0  0  0  0  0  0  0  0  0
   33.9803   -0.0156   -0.0095 C   0  0  0  0  0  0  0  0  0  0  0  0
   35.3165   -0.0172   -0.0091 C   0  0  0  0  0  0  0  0  0  0  0  0
   36.5409   -0.0167   -0.0091 C   0  0  0  0  0  0  0  0  0  0  0  0
   37.8772   -0.0120   -0.0086 C   0  0  0  0  0  0  0  0  0  0  0  0
   39.0971   -0.0065   -0.0073 C   0  0  0  0  0  0  0  0  0  0  0  0
   27.9253    0.0199   -0.0072 Zn  0  0  0  0  0  0  0  0  0  0  0  0
   25.4081   -3.4041    0.3740 C   0  0  0  0  0  0  0  0  0  0  0  0
   24.4500   -2.4511    0.2716 C   0  0  0  0  0  0  0  0  0  0  0  0
   25.1329   -1.1971    0.1321 C   0  0  0  0  0  0  0  0  0  0  0  0
   24.4874    0.0435   -0.0026 C   0  0  0  0  0  0  0  0  0  0  0  0
   25.1494    1.2752   -0.1390 C   0  0  0  0  0  0  0  0  0  0  0  0
   24.4833    2.5384   -0.2771 C   0  0  0  0  0  0  0  0  0  0  0  0
   25.4542    3.4780   -0.3829 C   0  0  0  0  0  0  0  0  0  0  0  0
   26.7087    2.7858   -0.3092 C   0  0  0  0  0  0  0  0  0  0  0  0
   26.4920    1.4483   -0.1610 N   0  0  0  0  0  0  0  0  0  0  0  0
   27.9479    3.3991   -0.3788 C   0  0  0  0  0  0  0  0  0  0  0  0
   29.1787    2.7690   -0.3106 C   0  0  0  0  0  0  0  0  0  0  0  0
   30.4424    3.4441   -0.3863 C   0  0  0  0  0  0  0  0  0  0  0  0
   31.4005    2.4914   -0.2817 C   0  0  0  0  0  0  0  0  0  0  0  0
   30.7176    1.2372   -0.1431 C   0  0  0  0  0  0  0  0  0  0  0  0
   29.3774    1.4286   -0.1630 N   0  0  0  0  0  0  0  0  0  0  0  0
   31.3630   -0.0035   -0.0098 C   0  0  0  0  0  0  0  0  0  0  0  0
   30.7011   -1.2355    0.1233 C   0  0  0  0  0  0  0  0  0  0  0  0
   31.3672   -2.4990    0.2590 C   0  0  0  0  0  0  0  0  0  0  0  0
   30.3964   -3.4388    0.3637 C   0  0  0  0  0  0  0  0  0  0  0  0
   29.1418   -2.7464    0.2915 C   0  0  0  0  0  0  0  0  0  0  0  0
   29.3585   -1.4087    0.1452 N   0  0  0  0  0  0  0  0  0  0  0  0
   27.9026   -3.3595    0.3623 C   0  0  0  0  0  0  0  0  0  0  0  0
   26.6718   -2.7292    0.2968 C   0  0  0  0  0  0  0  0  0  0  0  0
   26.4731   -1.3887    0.1501 N   0  0  0  0  0  0  0  0  0  0  0  0
   25.2849   -4.4635    0.4908 H   0  0  0  0  0  0  0  0  0  0  0  0
   23.3837   -2.5690    0.2872 H   0  0  0  0  0  0  0  0  0  0  0  0
   23.4187    2.6709   -0.2895 H   0  0  0  0  0  0  0  0  0  0  0  0
   25.3453    4.5390   -0.4998 H   0  0  0  0  0  0  0  0  0  0  0  0
   27.9552    4.4737   -0.4977 H   0  0  0  0  0  0  0  0  0  0  0  0
   30.5657    4.5034   -0.5036 H   0  0  0  0  0  0  0  0  0  0  0  0
   32.4668    2.6094   -0.2958 H   0  0  0  0  0  0  0  0  0  0  0  0
   32.4318   -2.6315    0.2710 H   0  0  0  0  0  0  0  0  0  0  0  0
   30.5053   -4.4999    0.4791 H   0  0  0  0  0  0  0  0  0  0  0  0
   27.8954   -4.4344    0.4800 H   0  0  0  0  0  0  0  0  0  0  0  0
  2  3  2  0  0  0  0
  3  4  1  0  0  0  0
  4  5  4  0  0  0  0
  5  6  4  0  0  0  0
  6  7  1  0  0  0  0
  7  8  2  0  0  0  0
  8  9  1  0  0  0  0
  1 10  1  0  0  0  0
  6 10  4  0  0  0  0
  9 10  4  0  0  0  0
  9 11  4  0  0  0  0
 11 12  4  0  0  0  0
 12 13  1  0  0  0  0
 13 14  2  0  0  0  0
 14 15  1  0  0  0  0
  1 16  1  0  0  0  0
 12 16  4  0  0  0  0
 15 16  4  0  0  0  0
 15 17  4  0  0  0  0
 17 18  4  0  0  0  0
 18 19  1  0  0  0  0
 19 20  2  0  0  0  0
 20 21  1  0  0  0  0
  1 22  1  0  0  0  0
 18 22  4  0  0  0  0
 21 22  4  0  0  0  0
 21 23  4  0  0  0  0
  2 24  1  0  0  0  0
 23 24  4  0  0  0  0
  1 25  1  0  0  0  0
  4 25  4  0  0  0  0
 24 25  4  0  0  0  0
  2 26  1  0  0  0  0
  3 27  1  0  0  0  0
  7 28  1  0  0  0  0
  8 29  1  0  0  0  0
 11 30  1  0  0  0  0
 13 31  1  0  0  0  0
 14 32  1  0  0  0  0
 17 33  1  0  0  0  0
 19 34  1  0  0  0  0
 20 35  1  0  0  0  0
 23 36  1  0  0  0  0
 38 39  2  0  0  0  0
 39 40  1  0  0  0  0
 40 41  4  0  0  0  0
 41 42  4  0  0  0  0
 42 43  1  0  0  0  0
 43 44  2  0  0  0  0
 44 45  1  0  0  0  0
 37 46  1  0  0  0  0
 42 46  4  0  0  0  0
 45 46  4  0  0  0  0
 45 47  4  0  0  0  0
 47 48  4  0  0  0  0
 48 49  1  0  0  0  0
 49 50  2  0  0  0  0
 50 51  1  0  0  0  0
 37 52  1  0  0  0  0
 48 52  4  0  0  0  0
 51 52  4  0  0  0  0
 51 53  4  0  0  0  0
 53 54  4  0  0  0  0
 54 55  1  0  0  0  0
 55 56  2  0  0  0  0
 56 57  1  0  0  0  0
 37 58  1  0  0  0  0
 54 58  4  0  0  0  0
 57 58  4  0  0  0  0
 57 59  4  0  0  0  0
 38 60  1  0  0  0  0
 59 60  4  0  0  0  0
 37 61  1  0  0  0  0
 40 61  4  0  0  0  0
 60 61  4  0  0  0  0
 38 62  1  0  0  0  0
 39 63  1  0  0  0  0
 43 64  1  0  0  0  0
 44 65  1  0  0  0  0
 47 66  1  0  0  0  0
 49 67  1  0  0  0  0
 50 68  1  0  0  0  0
 53 69  1  0  0  0  0
 55 70  1  0  0  0  0
 56 71  1  0  0  0  0
 59 72  1  0  0  0  0
  5 73  1  0  0  0  0
 73 74  3  0  0  0  0
 74 75  4  0  0  0  0
 75 76  3  0  0  0  0
 76 77  4  0  0  0  0
 77 78  3  0  0  0  0
 79 80  3  0  0  0  0
 80 81  4  0  0  0  0
 81 82  3  0  0  0  0
 82 83  4  0  0  0  0
 41 84  1  0  0  0  0
 83 84  3  0  0  0  0
 86 87  2  0  0  0  0
 87 88  1  0  0  0  0
 78 89  1  0  0  0  0
 88 89  4  0  0  0  0
 89 90  4  0  0  0  0
 90 91  1  0  0  0  0
 91 92  2  0  0  0  0
 92 93  1  0  0  0  0
 85 94  1  0  0  0  0
 90 94  4  0  0  0  0
 93 94  4  0  0  0  0
 93 95  4  0  0  0  0
 95 96  4  0  0  0  0
 96 97  1  0  0  0  0
 97 98  2  0  0  0  0
 98 99  1  0  0  0  0
 85100  1  0  0  0  0
 96100  4  0  0  0  0
 99100  4  0  0  0  0
 79101  1  0  0  0  0
 99101  4  0  0  0  0
101102  4  0  0  0  0
102103  1  0  0  0  0
103104  2  0  0  0  0
104105  1  0  0  0  0
 85106  1  0  0  0  0
102106  4  0  0  0  0
105106  4  0  0  0  0
105107  4  0  0  0  0
 86108  1  0  0  0  0
107108  4  0  0  0  0
 85109  1  0  0  0  0
 88109  4  0  0  0  0
108109  4  0  0  0  0
 86110  1  0  0  0  0
 87111  1  0  0  0  0
 91112  1  0  0  0  0
 92113  1  0  0  0  0
 95114  1  0  0  0  0
 97115  1  0  0  0  0
 98116  1  0  0  0  0
103117  1  0  0  0  0
104118  1  0  0  0  0
107119  1  0  0  0  0
M  END
