154
 xtb: 6.4.1 (bd6e46d)
Co       21.74482469907220    0.00039104071413   -0.00817160001932
C        24.23834238078007   -3.40876062310252    0.10265080042191
C        25.19150557200393   -2.45007579757727    0.07101907546694
C        24.50258543912856   -1.19661070690749    0.02678625184463
C        25.16803209010262    0.03049929872739   -0.00589796947061
C        24.48120751236600    1.24624318169865   -0.00826405206944
C        25.14847629805916    2.51217552804429   -0.00152231224913
C        24.17925910241451    3.45446074653627    0.03398202449593
C        22.93094047828347    2.75417867531249    0.04036464312358
N        23.12696824196987    1.39812038906788    0.01304885648284
C        21.71116009542717    3.39495170712554    0.06270116951875
C        20.50456076107382    2.73072262138867    0.02850225216581
C        19.23901163397526    3.40447892932851    0.01289530546201
C        18.29329864408694    2.44279028292338   -0.05952260062355
C        18.98811221465879    1.18851586283989   -0.07880185687121
N        20.34107057401402    1.37425907285245   -0.02354549384838
C        18.34361392851789   -0.02846820209641   -0.13592983901398
C        19.01046197006887   -1.23449060296868   -0.11327610687929
C        18.33876862947711   -2.50130896377168   -0.13313045899920
C        19.30072820876536   -3.44696318510268   -0.06342916712158
C        20.55303820017251   -2.75083869636074   -0.00988444155975
N        20.36575450656458   -1.39696048329030   -0.04353241334460
C        21.76996187138009   -3.39341469943521    0.05644406607418
C        22.97815375673376   -2.73085299577368    0.07001875979809
N        23.15101163852090   -1.37202672261317    0.02912212411260
H        24.35505982165712   -4.47465076876729    0.11687270989392
H        26.25890511923976   -2.55542183540348    0.07181591074475
H        26.21377912960778    2.63633800408585   -0.02456793378741
H        24.27754150892682    4.52281232724174    0.02749013155060
H        21.70235121929050    4.47481792137363    0.07067175688430
H        19.11899200699091    4.47080846508544    0.04736052575236
H        17.22528824978576    2.54563679368295   -0.06146357009758
H        17.26387069692026   -0.03748976832403   -0.14179128569283
H        17.27271371959927   -2.62196545245754   -0.15576541518371
H        19.19911344887783   -4.51476983582650   -0.05231200292982
H        21.77972064331871   -4.47269333250777    0.06257143055938
Co       62.03229036199147    0.03825651769187   -0.00081699091943
C        59.54557072815509    3.40391668655676    0.58611462639845
C        58.59038343711486    2.46256069530333    0.41306554635446
C        59.27670194581418    1.22483456188900    0.20078427232029
C        58.60826774353572    0.01574440439551   -0.00027163250269
C        59.29170791192554   -1.18628506662067   -0.19310929966384
C        58.62084855973868   -2.43504864596841   -0.38986360538728
C        59.58775109684822   -3.36752504141718   -0.54480029351799
C        60.83805698744254   -2.67800767166290   -0.44311224690863
N        60.64571191027388   -1.33868098464791   -0.22515769505227
C        62.05581148413201   -3.31125157799686   -0.56452485414556
C        63.26421281851416   -2.65534786568371   -0.47751902957466
C        64.52772246619810   -3.31884144185468   -0.61576213663007
C        65.47729138681136   -2.36896627947814   -0.47362340487445
C        64.78650613227904   -1.13283461373393   -0.24719411056434
N        63.43230461081482   -1.31722890928506   -0.25288033217051
C        65.43573703961775    0.06556344000531   -0.04275429318917
C        64.77191630054079    1.25156796360412    0.18588443207830
C        65.44751252447097    2.49621996182416    0.41127239360213
C        64.48621195240031    3.42675368781947    0.59610931306987
C        63.23084702705275    2.74396603223574    0.47973065630417
N        63.41548050217879    1.41232242653855    0.23160034145050
C        62.01425281788178    3.37953715417428    0.59756871404485
C        60.80437722930262    2.73143368842842    0.47543845739235
N        60.62873251680890    1.39345714739823    0.23693182248678
H        59.43165625122501    4.45051767622550    0.78849116381533
H        57.52355611756576    2.56873684919682    0.43090084828744
H        57.55534011362496   -2.55692300235368   -0.39864671559882
H        59.48696818571789   -4.42528466097833   -0.69599392357719
H        62.06217090736406   -4.37951965561454   -0.72329813138361
H        64.64434912825052   -4.37045473134126   -0.79575746908532
H        66.54386063768700   -2.46535088526269   -0.53691794803893
H        66.51394953978760    0.08006888386919   -0.09170835827419
H        66.51325629884926    2.61790579944215    0.39596653975313
H        64.59026603680542    4.47546684450778    0.79110113616519
H        62.00744313056157    4.43759938844478    0.80762474288337
C        26.56634414876462    0.04241799893761   -0.01612649737149
C        27.78396131114586    0.05278693470700   -0.02228216276268
C        29.12674551631481    0.06068036766292   -0.02485183258613
C        30.34451215044433    0.06683417276195   -0.02324461703838
C        39.99919149510957    0.05068334914698   -0.01463635522623
C        41.21712518513861    0.04256436457640   -0.01624334067785
C        42.55964016240029    0.03498884579640   -0.01818974649622
C        43.77750578955464    0.02575450372507   -0.02010334640208
C        53.43156272244965   -0.00800734223771   -0.01365175913632
C        54.64928469515679   -0.00457814058432   -0.00990403490579
C        55.99218039009283   -0.00086403026414   -0.00547611095957
C        57.20976044740779    0.00788715278742   -0.00369881866153
Co       35.17158710874429    0.06271150919163    0.00105343574879
C        32.69774378497250   -3.34312305238635    0.38791812321204
C        31.73761747294746   -2.39795526175250    0.27212200250339
C        32.41770352083810   -1.14759430476093    0.12459881652987
C        31.74237183158101    0.06634871984254   -0.01949340014270
C        32.42196408850803    1.27857346784240   -0.15633313137982
C        31.74644019996924    2.53166288722237   -0.30155899611491
C        32.71004302591267    3.47482211771960   -0.40431572313549
C        33.96222108921796    2.78696105347858   -0.32144639516918
N        33.77483444202148    1.43803001947397   -0.16877943982320
C        35.17791581704425    3.43105486559529   -0.38974070118925
C        36.39120321409801    2.78321870405523   -0.31470636097538
C        37.64583438779034    3.46743261685399   -0.38993376411882
C        38.60600981117994    2.52094416998085   -0.28543258427328
C        37.92605478601391    1.26955625402598   -0.14689047319551
N        36.57378919263870    1.43334817908657   -0.16400074640975
C        38.60149764637237    0.05455405847548   -0.01253968334131
C        37.92148936618457   -1.15756779279788    0.12578011964322
C        38.59688254550939   -2.41112524556253    0.26782348457271
C        37.63323145104926   -3.35303629357167    0.38116042905150
C        36.38119836685831   -2.66420754300747    0.30584171682401
N        36.56868105625853   -1.31564412345415    0.14917241825293
C        35.16561591691371   -3.30715188155315    0.38468339057685
C        33.95238888259300   -2.65940799527115    0.30866341165240
N        33.76993153451604   -1.31062226636504    0.14825748824422
H        32.58946644861474   -4.40405106263936    0.50502479722684
H        30.67128935651594   -2.51110710981815    0.28280315830674
H        30.68027524070640    2.64708361718437   -0.31925498874906
H        32.60531163709412    4.53416359055385   -0.53363792037761
H        35.17982405829817    4.50218302644400   -0.52319325962092
H        37.75417411931029    4.52669955730155   -0.51874402212297
H        39.67250545684958    2.63294831985776   -0.30289567140305
H        39.66309785317637   -2.52883112005566    0.27092457755556
H        37.73795062939923   -4.41501066855411    0.49091475444577
H        35.16385180745594   -4.38104153891248    0.49709895289775
Co       48.60448743375090    0.00444632793170   -0.04182733173135
C        46.12488683733424   -3.39268982806953    0.37432168482897
C        45.16642847343375   -2.44341714971856    0.27972560686085
C        45.84851170498190   -1.19512961964537    0.12348197374128
C        45.17518485163568    0.01956522143271   -0.02408739942232
C        45.85727194722617    1.22850921141060   -0.17861594536091
C        45.18425186303444    2.48098667972394   -0.33901314855855
C        46.14954827524807    3.42174243169664   -0.44775123731602
C        47.40029347091530    2.73323801488748   -0.35128094290169
N        47.21033987725248    1.38544089460099   -0.19104837716199
C        48.61688577703932    3.37700351064865   -0.40388433712789
C        49.82870964019396    2.72913469364471   -0.30866495361390
C        51.08448240378770    3.41378893652348   -0.35702941302653
C        52.04277959308821    2.46622119239371   -0.24588348912721
C        51.36051184160653    1.21348223991191   -0.13211141397963
N        50.00863547822295    1.37784599510708   -0.16739870245103
C        52.03356973335293   -0.00493993152110   -0.01989454202372
C        51.35198112471853   -1.21933452029178    0.08317571782355
C        52.02530583073455   -2.47728720485792    0.19304835196993
C        51.06005098695108   -3.41958174697792    0.28782695608598
C        49.80908556819629   -2.72640547054022    0.23560513204914
N        49.99880705634919   -1.37551121829774    0.10496351565303
C        48.59243861058629   -3.36648652131213    0.32188845919327
C        47.38057078173718   -2.71327431467631    0.27627711783871
N        47.20034917058761   -1.36312448842504    0.12555366423112
H        46.01498459373654   -4.45093853306732    0.50889994084367
H        44.09999404703542   -2.55159149293022    0.31356792973077
H        44.11847350761833    2.59901123283062   -0.35604669677129
H        46.04687720144179    4.48288491789835   -0.56717033403834
H        48.62069805927261    4.45162394305531   -0.51080189733447
H        51.19483625329129    4.47691377040455   -0.45327201378604
H        53.10942099239208    2.57938421331160   -0.23968559342470
H        53.09133333028381   -2.59572764989542    0.19700553563729
H        51.16309542311213   -4.48138761585940    0.39390603746848
H        48.58887337033824   -4.43854549811884    0.44569250640006
