242

Fe 29.704317 -0.001631 -0.012332
C 32.204880 -3.389446 0.026538
C 33.196716 -2.468075 0.024423
C 32.555684 -1.189012 0.009422
C 33.231427 0.035399 -0.000075
C 32.530325 1.245345 -0.011856
C 33.144480 2.537580 -0.019194
C 32.133568 3.437969 -0.024947
C 30.909503 2.689844 -0.021677
N 31.173337 1.345176 -0.014164
C 29.667256 3.293621 -0.024995
C 28.439580 2.661378 -0.025396
C 27.195945 3.381012 -0.030776
C 26.208702 2.457448 -0.034007
C 26.852084 1.175625 -0.030094
N 28.209805 1.313428 -0.024117
C 26.194796 -0.038501 -0.033021
C 26.877364 -1.238586 -0.026633
C 26.261012 -2.533629 -0.027661
C 27.267376 -3.436253 -0.015882
C 28.495602 -2.690660 -0.008088
N 28.237639 -1.347850 -0.015602
C 29.736214 -3.296944 0.006396
C 30.965471 -2.667187 0.012459
N 31.201115 -1.317286 0.003188
H 32.285357 -4.459264 0.036277
H 34.258886 -2.617900 0.032079
H 34.203320 2.709612 -0.019322
H 32.191642 4.509265 -0.031008
H 29.655996 4.374422 -0.028559
H 27.113926 4.450975 -0.032123
H 25.146271 2.606553 -0.038503
H 25.115928 -0.049805 -0.039842
H 25.201973 -2.705028 -0.036052
H 27.207827 -4.507699 -0.012637
H 29.747641 -4.377728 0.013017
Fe 109.907393 0.033755 -0.010716
C 107.414195 3.368192 0.619641
C 106.420379 2.464257 0.452735
C 107.058695 1.205839 0.215821
C 106.380372 0.002975 -0.004860
C 107.078705 -1.188216 -0.225911
C 106.461659 -2.457982 -0.458481
C 107.470548 -3.344934 -0.626151
C 108.696278 -2.611116 -0.495173
N 108.435478 -1.288483 -0.249453
C 109.937167 -3.206539 -0.610981
C 111.166200 -2.586362 -0.502561
C 112.408245 -3.295413 -0.640857
C 113.397508 -2.388402 -0.478675
C 112.756954 -1.127278 -0.241378
N 111.398939 -1.261202 -0.258518
C 113.416923 0.065661 -0.023520
C 112.737030 1.246260 0.200266
C 113.356290 2.518526 0.434556
C 112.351927 3.406973 0.606456
C 111.122013 2.675605 0.476394
N 111.376981 1.355326 0.228166
C 109.882734 3.273291 0.594036
C 108.652079 2.656142 0.483090
N 108.413561 1.329610 0.235653
H 107.336007 4.419895 0.816836
H 105.358515 2.613300 0.483483
H 105.402437 -2.625450 -0.485809
H 107.410091 -4.398265 -0.820888
H 109.946039 -4.269323 -0.807649
H 112.487898 -4.347593 -0.836119
H 114.459600 -2.536229 -0.512144
H 114.495818 0.075518 -0.027831
H 114.415730 2.685732 0.459783
H 112.413851 4.460105 0.803011
H 109.873685 4.335654 0.792957
C 34.627125 0.049329 0.002076
C 35.846737 0.057958 0.003772
C 37.183556 0.066062 0.003793
C 38.407621 0.071600 0.000223
C 39.744318 0.073383 -0.001526
C 40.964135 0.072474 -0.002248
C 50.817975 0.042881 -0.025298
C 52.037781 0.038960 -0.024639
C 53.374346 0.036002 -0.025371
C 54.598367 0.035500 -0.025132
C 55.935175 0.034579 -0.024842
C 57.154732 0.034552 -0.023950
C 66.638273 0.036505 -0.020585
C 67.857697 0.037368 -0.020617
C 69.194595 0.037776 -0.020744
C 70.418427 0.038469 -0.020503
C 71.755325 0.040061 -0.020108
C 72.974748 0.040585 -0.020027
C 82.457622 0.047881 -0.022675
C 83.677155 0.046725 -0.022702
C 85.013933 0.045629 -0.023317
C 86.237939 0.043217 -0.023406
C 87.574465 0.039425 -0.022974
C 88.794247 0.035329 -0.021309
C 98.647570 -0.014536 -0.012285
C 99.867335 -0.018180 -0.010162
C 101.204085 -0.019519 -0.008384
C 102.428094 -0.018372 -0.006183
C 103.764989 -0.013946 -0.004779
C 104.984565 -0.007882 -0.004794
Fe 45.891164 0.057882 -0.015805
C 43.414435 -3.326619 0.370808
C 42.414877 -2.419015 0.270161
C 43.045380 -1.142800 0.126246
C 42.359221 0.069114 -0.006309
C 43.052182 1.276656 -0.142763
C 42.429075 2.556843 -0.283605
C 43.433854 3.458002 -0.390175
C 44.662560 2.722053 -0.313504
N 44.407768 1.384027 -0.161080
C 45.900512 3.329084 -0.389796
C 47.135021 2.713554 -0.325721
C 48.367938 3.440872 -0.415496
C 49.367472 2.533304 -0.313859
C 48.736925 1.257949 -0.163076
N 47.382002 1.374300 -0.171564
C 49.423019 0.046820 -0.023486
C 48.730080 -1.160143 0.118249
C 49.353269 -2.439530 0.265418
C 48.348504 -3.340910 0.370437
C 47.119813 -2.605763 0.286926
N 47.374504 -1.267975 0.132653
C 45.881772 -3.213475 0.356923
C 44.647361 -2.598499 0.287657
N 44.400305 -1.258801 0.137097
H 43.342994 -4.390417 0.490337
H 41.353969 -2.576450 0.289162
H 41.369093 2.721021 -0.296863
H 43.368584 4.522198 -0.509730
H 45.903620 4.403006 -0.512772
H 48.439475 4.504141 -0.539542
H 50.428382 2.690258 -0.336430
H 50.413253 -2.603201 0.283036
H 48.413865 -4.404747 0.493054
H 45.878650 -4.287462 0.479306
Fe 61.896577 0.035392 -0.022192
C 59.407486 -3.412982 0.380551
C 58.480708 -2.433265 0.265729
C 59.199196 -1.200239 0.121511
C 58.554312 0.034743 -0.023437
C 59.198810 1.269996 -0.167867
C 58.479967 2.502751 -0.312627
C 59.406461 3.482811 -0.426810
C 60.684541 2.842780 -0.351109
N 60.542976 1.491141 -0.193028
C 61.896046 3.498907 -0.427100
C 63.107849 2.843352 -0.349749
C 64.385754 3.483866 -0.423908
C 65.312474 2.504089 -0.308991
C 64.593897 1.271078 -0.165258
N 63.249667 1.491780 -0.191749
C 65.238669 0.036056 -0.020809
C 64.594307 -1.199242 0.123028
C 65.313247 -2.432017 0.266966
C 64.386808 -3.412160 0.381101
C 63.108710 -2.772117 0.306121
N 63.250135 -1.420479 0.148384
C 61.897093 -3.428138 0.382580
C 60.685388 -2.772474 0.305799
N 60.543427 -1.420878 0.147656
H 59.258217 -4.467972 0.503983
H 57.411383 -2.517086 0.275365
H 57.410624 2.586196 -0.323027
H 59.256893 4.537741 -0.550383
H 61.895875 4.570904 -0.552469
H 64.535158 4.538865 -0.547102
H 66.381798 2.587879 -0.318252
H 66.382602 -2.515384 0.276996
H 64.536512 -4.467123 0.504241
H 61.897230 -4.500151 0.507829
Fe 77.716159 0.044114 -0.021783
C 75.229266 -3.405922 0.381203
C 74.301992 -2.426732 0.265736
C 75.019870 -1.193219 0.122648
C 74.374354 0.041545 -0.020774
C 75.017854 1.277297 -0.164560
C 74.297975 2.509676 -0.307250
C 75.223659 3.490285 -0.423396
C 76.502236 2.850920 -0.350837
N 76.361862 1.499262 -0.192286
C 77.713351 3.507428 -0.430950
C 78.925455 2.852302 -0.355978
C 80.203011 3.493063 -0.434494
C 81.130302 2.513926 -0.318906
C 80.412451 1.281012 -0.170508
N 79.068110 1.501089 -0.195193
C 81.058064 0.046790 -0.022593
C 80.414526 -1.188532 0.125568
C 81.134342 -2.420350 0.273581
C 80.208618 -3.400924 0.389575
C 78.930040 -2.762140 0.311751
N 79.070537 -1.410709 0.150899
C 77.719001 -3.419174 0.387321
C 76.506806 -2.764570 0.307941
N 76.364234 -1.413122 0.149530
H 75.080476 -4.461035 0.504203
H 73.232710 -2.511214 0.274280
H 73.228560 2.592501 -0.315153
H 75.073152 4.545150 -0.546423
H 77.712459 4.579266 -0.557646
H 80.351727 4.547804 -0.560717
H 82.199589 2.598062 -0.330569
H 82.203748 -2.502897 0.284679
H 80.359034 -4.455440 0.515680
H 77.719879 -4.491024 0.513925
Fe 93.720756 0.009951 -0.019752
C 91.235839 -3.368277 0.369661
C 90.238544 -2.458506 0.265887
C 90.872259 -1.184327 0.118400
C 90.189164 0.028421 -0.021818
C 90.884919 1.233927 -0.161832
C 90.264711 2.514554 -0.310836
C 91.271582 3.413739 -0.414540
C 92.498556 2.676072 -0.327893
N 92.240739 1.338923 -0.173272
C 93.738038 3.281070 -0.395792
C 94.970924 2.663524 -0.322223
C 96.205652 3.388905 -0.402692
C 97.202965 2.479498 -0.296318
C 96.569308 1.204886 -0.151846
N 95.214654 1.323628 -0.168144
C 97.252410 -0.008177 -0.014759
C 96.556660 -1.214260 0.119650
C 97.176809 -2.495420 0.264684
C 96.169921 -3.394678 0.367172
C 94.942926 -2.656576 0.284047
N 95.200806 -1.319131 0.131885
C 93.703536 -3.261366 0.354364
C 92.470552 -2.643406 0.285009
N 92.226886 -1.303508 0.131105
H 91.161694 -4.431554 0.492125
H 89.177248 -2.613291 0.284685
H 89.205103 2.680412 -0.330810
H 91.208707 4.477625 -0.538038
H 93.743775 4.354879 -0.519620
H 96.279705 4.452266 -0.524504
H 98.264260 2.634676 -0.312110
H 98.236420 -2.661465 0.283306
H 96.232701 -4.458870 0.488064
H 93.697835 -4.335293 0.477166
