332
 xtb: 6.4.1 (bd6e46d)
C        48.73364151823348    3.43265825554152    0.15390324804180
C        49.68945162768841    2.48420403030157    0.11086387689571
C        48.98856314376648    1.21518417417514    0.02781807417533
C        49.64986372332886   -0.02765675654399   -0.03395152753723
C        48.99865225779066   -1.26965319905873   -0.11400264852881
C        49.60196312785585   -2.55410926629109   -0.17988225838927
C        48.59748765932525   -3.47594795913039   -0.24854864807637
C        47.35934423825552   -2.77408206671318   -0.22621630813539
N        47.65269135600067   -1.44682180287187   -0.14417333190561
C        46.09115324230160   -3.33324833120327   -0.27864801240754
C        44.87452708676617   -2.66562897375419   -0.25780780341413
C        43.59607848789666   -3.35922129934174   -0.31870932235894
C        42.64807526105555   -2.40487910841201   -0.27552640165299
C        43.35486010020490   -1.13626369955221   -0.18873948076060
N        44.68851400716558   -1.33048656003670   -0.18060510220241
C        42.71013100504092    0.09284424111422   -0.12416295773486
C        43.33676647074068    1.32695905076362   -0.04189649896257
C        42.73239752807871    2.61484210641371    0.02592260650484
C        43.73369590629667    3.53803138517148    0.09394145670478
C        44.97541606449740    2.83870720066957    0.06953860768973
N        44.68204297158663    1.51454905672980   -0.01237363098217
C        46.24423247757944    3.39702575323293    0.11927555792079
C        47.46138732673982    2.73237264765916    0.09628190739350
N        47.65601236830540    1.39429318730086    0.02063723161211
H        48.84975345990914    4.49792796084309    0.21762526289470
H        50.76741272423881    2.59712621819198    0.13147005597806
H        50.67847077665284   -2.73165762480683   -0.17510586746553
H        48.71578036110517   -4.54327782237011   -0.30983227253603
H        46.99795410958360   -0.69307243749347   -0.11062693776371
H        46.07002231868857   -4.41646266130216   -0.34355187048120
H        43.50369964248744   -4.43276181983400   -0.38514299218935
H        41.59874948284875   -2.51943854323879   -0.29829653265070
H        41.64491013224132    0.07589582909317   -0.14000484592566
H        41.68589519548048    2.78392470046311    0.02160038360850
H        43.64393727683394    4.59625307453331    0.15473357667769
H        45.36803706965848    0.74986423926944   -0.04846832442374
H        46.29669711617181    4.47124369615137    0.18277503189058
C       156.62826036123903   -3.40934034016714    0.36851225130640
C       155.67250601033479   -2.46264578120584    0.29570817494673
C       156.37314541836892   -1.19854733955995    0.15516240371444
C       155.71178536719714    0.04121671569932    0.04772619651642
C       156.36273229591930    1.27922593787316   -0.08100923046149
C       155.75917983785033    2.56097786116813   -0.18583445250462
C       156.76329487354963    3.47964912045892   -0.29205528837735
C       158.00141707498955    2.77835447831930   -0.25555018958806
N       157.70847108249654    1.45476164227386   -0.12617795839017
C       159.26931872700032    3.33440640014119   -0.33895859326259
C       160.48557077293523    2.66631947863465   -0.31183416229172
C       161.76367223101909    3.35578508685571   -0.41323256516742
C       162.71121443209555    2.40176407758187   -0.35526125405997
C       162.00454101073097    1.13758575656345   -0.21770409786485
N       160.67140118500794    1.33402272605639   -0.19491410504461
C       162.64903836485240   -0.08971472223224   -0.12324512210630
C       162.02287756264084   -1.31923608947311    0.01343916834330
C       162.62737440271201   -2.60450207208171    0.11917526624962
C       161.62675918509910   -3.52297279363036    0.24040502451551
C       160.38533211671557   -2.82335027388243    0.21099276190789
N       160.67820318056238   -1.50370147610410    0.07343380317079
C       159.11711309448881   -3.37770260397423    0.30272421048804
C       157.90018905681660   -2.71308509735184    0.26979629926796
N       157.70549521783636   -1.37887560510315    0.14311949939001
H       156.51205749409388   -4.47075588283330    0.47848784008245
H       154.59454549199245   -2.57355077128980    0.33226142593816
H       154.68253801424339    2.73890811099682   -0.18159323238384
H       156.64449249544037    4.54409276029014   -0.39233981481055
H       158.36330164542082    0.70244381381900   -0.07393592398901
H       159.29022238218698    4.41454149544798   -0.44402062715026
H       161.85591270217188    4.42613889869314   -0.51938519984566
H       163.75991970801502    2.51353812940416   -0.40157802456603
H       163.71356655968583   -0.07518125630858   -0.16020842771239
H       163.67324353995457   -2.77517773620224    0.10251293420803
H       161.71652725675341   -4.57805570700844    0.34165009244772
H       159.99195365179526   -0.74005498951935    0.01925002694973
H       159.06468734308768   -4.44829066023159    0.41104980470120
C        51.04465739776293   -0.03151732477744   -0.01592390695916
C        52.26506558705297   -0.02940669247746   -0.00093525402890
C        53.60016590470015   -0.02575764889836    0.01260566154542
C        54.82502082027627   -0.01907010393547    0.02265406667388
C        56.16029060232547   -0.01012244375631    0.02943641984291
C        57.38100329074813   -0.00056587982861    0.03266090477388
C        67.20061788249357   -0.03385729875511    0.00805300738554
C        68.42148760277183   -0.02125356509297    0.00786329873356
C        69.75602867808435   -0.00650932040726    0.00394068191470
C        70.98114553874998    0.00999519880494    0.00206963247321
C        72.31592724010112    0.02439631743148    0.00240012179790
C        73.53683990760371    0.03745204625407    0.00279141288674
C        83.35797810342723   -0.01665646735232    0.00410065123597
C        84.57893211705304   -0.00694996535457    0.00352930983932
C        85.91358881943741   -0.00062953797071    0.00272766880329
C        87.13878937506736    0.00773527982956    0.00274399072361
C        88.47354870398775    0.01924570123705    0.00248973377609
C        89.69450438987924    0.02738714141726    0.00247346085126
C        99.51643392323929   -0.01368492854418   -0.00168678374123
C       100.73734352324449   -0.00194213518643   -0.00761590652297
C       102.07201225817231    0.00966295140604   -0.01349417369432
C       103.29719312084632    0.02131424845699   -0.01866764078038
C       104.63187623906047    0.03203111802011   -0.02168784682558
C       105.85280399139008    0.04083496876222   -0.02272099623711
C       115.67308303217486   -0.02419527770441    0.02471490414391
C       116.89399533680009   -0.01327936140040    0.02100335927523
C       118.22870428686612   -0.00161396837430    0.01650059569243
C       119.45381777472730    0.01247454017356    0.00696963614831
C       120.78838342276644    0.02509965440335   -0.00041452630666
C       122.00925141721216    0.03665461270644   -0.00915500615254
C       131.82743777048515   -0.01889763278426    0.00698891666003
C       133.04822873580758   -0.00449591544666    0.01939438941071
C       134.38289734517858    0.01093620987685    0.03305774567304
C       135.60790208137638    0.02776498196517    0.04728735841049
C       136.94235931517221    0.04224785758194    0.06071653438573
C       138.16316049378443    0.05591642069404    0.07258301760996
C       147.98077608344988   -0.00292228703451    0.09579598630231
C       149.20145553890697    0.00851171032492    0.09432379057506
C       150.53667236965197    0.01928323078206    0.09082800422444
C       151.76156166205695    0.03080188933605    0.08726487163317
C       153.09663228915176    0.03906750651380    0.07748826073933
C       154.31709870573965    0.04521996702211    0.06698463630082
C        59.75969031776248   -3.42019979923990    0.39644969510532
C        58.78357867911825   -2.49622252237898    0.29919740964616
C        59.45760461429223   -1.21877320730522    0.16031292722050
C        58.77600224156500    0.00887777077771    0.03164887852145
C        59.42333525596597    1.24992960039837   -0.10063417906332
C        58.82628686097572    2.53032561761855   -0.23453775214337
C        59.83755693642789    3.44311464302481   -0.33629499416101
C        61.07136893036633    2.73849506022148   -0.26675521150071
N        60.76723720748924    1.41793516916481   -0.12412114823859
C        62.33955118869129    3.29973208505053   -0.33411177459137
C        63.56721489237577    2.66089560923759   -0.27221321585710
C        64.82519538850848    3.38398680337751   -0.35740167887376
C        65.80066877725710    2.45957881029966   -0.26165505599211
C        65.12599363247050    1.18250236883856   -0.11967204394108
N        63.79021837150852    1.33152859292830   -0.12949603497437
C        65.80726599211901   -0.04471282677749    0.01120702112119
C        65.16043501201106   -1.28492353780122    0.14766949301687
C        65.75805643464929   -2.56503895502906    0.28387770557966
C        64.74743529142023   -3.47806236478512    0.38603610250172
C        63.51305004774541   -2.77376872892676    0.31459958718151
N        63.81391426454681   -1.45439252909394    0.17085124038908
C        62.24521868325602   -3.33527271277990    0.37999126598148
C        61.01714482390449   -2.69673230475270    0.31521651487380
N        60.79105662001602   -1.36839484282069    0.17287402015983
H        59.68457775379235   -4.47871135644819    0.51144080557369
H        57.73182989885471   -2.62140421957079    0.31638426774554
H        57.78400784044180    2.71921680192366   -0.24830402006395
H        59.76010963004116    4.51141307346167   -0.44799088305130
H        61.43927144169902    0.65480578185136   -0.04471435552744
H        62.38396103931895    4.38070728211638   -0.44939276542676
H        64.92634276192837    4.45138510671459   -0.47313633487894
H        66.87885766178917    2.59356957688806   -0.28121733375403
H        66.82691706371922   -2.74511221148496    0.29982092292073
H        64.85105625569004   -4.53747332132913    0.50058729519146
H        63.17127069997326   -0.68178516845088    0.09064860233591
H        62.22676950065677   -4.40724296375972    0.49649229429825
C        75.90757224936996   -3.37983357179659    0.42286936599610
C        74.93350750938573   -2.45548534676539    0.31038337330096
C        75.61034862069981   -1.18159072519312    0.15310878777336
C        74.93125099743497    0.04522299807658    0.00260636146327
C        75.58161489689714    1.28233417543361   -0.14972903623363
C        74.98811876949941    2.56170301010925   -0.30695901853778
C        76.00197740421248    3.47032742381890   -0.41946357047914
C        77.23388367315201    2.76403480242719   -0.33323735024644
N        76.92632781872960    1.44698816868047   -0.17073772213409
C        78.50357337473972    3.32145821814179   -0.40298786185336
C        79.72989961867270    2.68156331905739   -0.32521697258622
C        80.98935700722747    3.40144450908777   -0.41476775063858
C        81.96301120946703    2.47697949349474   -0.30176267272902
C        81.28578573664832    1.20311909503668   -0.14455233492381
N        79.95074183306728    1.35442903021989   -0.16205100916804
C        81.96440727801169   -0.02345965449046    0.00561087735563
C        81.31426394960619   -1.26031174675201    0.15752158648122
C        81.90815589852073   -2.53976620066864    0.31372413589195
C        80.89474943280774   -3.44865614492445    0.42569698173752
C        79.66252087697004   -2.74235695261460    0.34013747190234
N        79.96772436860559   -1.42549940882278    0.17873017839147
C        78.39308765223241   -3.30001037260971    0.40979152076484
C        77.16664197787505   -2.66009395606541    0.33297558525007
N        76.94363647988165   -1.33297723187989    0.17049814069381
H        75.82612867828296   -4.44047729536628    0.55232233895048
H        73.87779295973488   -2.58212867720001    0.32652523139587
H        73.94205559689166    2.74834648450980   -0.32905559507269
H        75.92246172123318    4.53329118434899   -0.54992760334441
H        77.59224656778501    0.68039432162443   -0.07711687650645
H        78.54621285826893    4.39782801894847   -0.53549452445664
H        81.08855081361530    4.46388364861685   -0.54563469317161
H        83.03682613446749    2.60549320402565   -0.31860993291688
H        82.97238213232633   -2.72480327957032    0.33527573330628
H        80.99215343779649   -4.51008568785559    0.55495473870907
H        79.32187856610830   -0.65712261604054    0.08440763871054
H        78.36831609562905   -4.37470083052007    0.54055476590442
C        92.06995054790906   -3.38804242524305    0.41806683062087
C        91.09451089304159   -2.46518137034238    0.30586968939295
C        91.76941546261104   -1.18992520126544    0.15103912133091
C        91.08866080071094    0.03596461468718    0.00230805551640
C        91.73734242405891    1.27425361189705   -0.14706849497533
C        91.14201811638711    2.55313677197050   -0.30165189330798
C        92.15453040002569    3.46357144145980   -0.41074240974204
C        93.38747411304894    2.75884857197713   -0.32520095678632
N        93.08240872457772    1.44105454770606   -0.16662577723756
C        94.65624544238287    3.31855103290363   -0.39243726505937
C        95.88361843051302    2.68041886794146   -0.31657905217890
C        97.14181037221374    3.40244960558438   -0.40447592390231
C        98.11704993808178    2.47908209128420   -0.29556692248562
C        97.44194459437199    1.20369629751893   -0.14211788277873
N        96.10730663204292    1.35308558145683   -0.15794765670462
C        98.12261217683792   -0.02245860496646    0.00366026012883
C        97.47417655049286   -1.26043363288581    0.15490387829870
C        98.06962208249772   -2.53932393971425    0.30941218109967
C        97.05725265917326   -3.44943129791020    0.42170570780410
C        95.82417635996721   -2.74453270488597    0.33778632654266
N        96.12843609992831   -1.42700552119150    0.17736560439130
C        94.55544190678616   -3.30397176590002    0.40704728064616
C        93.32800373127066   -2.66598103207319    0.33023432976771
N        93.10345019112074   -1.33891098909969    0.16925297549563
H        91.98521572483432   -4.45063857452192    0.54635459601929
H        90.03384687035707   -2.59526794087178    0.32115202185935
H        90.08947932326525    2.73626110138209   -0.32373889149332
H        92.06670815329758    4.52554676295490   -0.53780689196655
H        93.74335533384711    0.67458739557907   -0.07352236329345
H        94.69064667157599    4.39503693812584   -0.52076511706806
H        97.23302536870665    4.46520415013070   -0.53085882535286
H        99.18424102063724    2.60894788505350   -0.31224074526810
H        99.12874259556698   -2.72285784845065    0.32956722103954
H        97.15157683583297   -4.51142988557333    0.54995053331803
H        95.47473298198949   -0.66067118676422    0.08485912555846
H        94.52745486539457   -4.38034636587160    0.53710288164091
C       108.21561871428290   -3.38070646100362    0.39949742077914
C       107.24362665854859   -2.45494646596127    0.28223679629583
C       107.92316246317570   -1.18155745362399    0.13173250579877
C       107.24666566954917    0.04618465422962   -0.02007142043635
C       107.89904363750182    1.28247753845835   -0.16807420079945
C       107.30748366723853    2.56257347737916   -0.32749357379260
C       108.32257598887900    3.47049497356890   -0.43274583873823
C       109.55344723656714    2.76297842083181   -0.33966372064314
N       109.24521990538673    1.44613833388609   -0.18106635557446
C       110.82392085429274    3.31949873990667   -0.39974165658374
C       112.04906515399465    2.67822595889462   -0.31485539559789
C       113.30963646489491    3.39671448481649   -0.39526091976067
C       114.28173475017361    2.47091671256486   -0.27867014302036
C       113.60226190130166    1.19753678892974   -0.12814965149182
N       112.26879967996976    1.35045407369213   -0.15303450602718
C       114.27896741902180   -0.03029775741266    0.02329856562169
C       113.62661904982771   -1.26665901051472    0.17204526253666
C       114.21805118200896   -2.54672595463162    0.33183980047146
C       113.20281054448758   -3.45451519746906    0.43772406222221
C       111.97202377899569   -2.74699233512795    0.34455370179424
N       112.28106943706327   -1.43017908997695    0.18538022711507
C       110.70144246886096   -3.30339386621138    0.40470862954434
C       109.47630606866285   -2.66213662699089    0.31936229860112
N       109.25725804776883   -1.33445403120308    0.15713745674747
H       108.12047552269691   -4.44291382734890    0.52661271710790
H       106.17596645765701   -2.58175236027787    0.29091221573960
H       106.24936296569861    2.74857822190261   -0.35601811727423
H       108.23207130131695    4.53274570118130   -0.56223983452803
H       109.89709348586148    0.67862701959300   -0.08362216236553
H       110.85608182637590    4.39574079343827   -0.52908290645547
H       113.39873100808306    4.45890268420835   -0.52158506097898
H       115.34322216828879    2.59756377839903   -0.28730089036700
H       115.26997103919854   -2.73274722358193    0.36038749465930
H       113.28719970640564   -4.51669590345676    0.56792760608615
H       111.62226394702670   -0.66271413148713    0.08826406884265
H       110.66316412329255   -4.37962562101651    0.53483166902978
C       124.37500150395130   -3.38436500211773    0.38893166624007
C       123.40224757902331   -2.45832123226503    0.28133529410318
C       124.08069064534401   -1.18457381289570    0.12821904612771
C       123.40281525083017    0.04306269958202   -0.01713125589847
C       124.05304623431938    1.27959948498791   -0.17087609651376
C       123.45900536981136    2.55896732171903   -0.32745103628705
C       124.47225330496606    3.46758557255302   -0.44313635672560
C       125.70452393844440    2.76127427871234   -0.35900275624093
N       125.39952443732976    1.44466142005183   -0.19518906079386
C       126.97412823434514    3.31833649504830   -0.42998972185998
C       128.20003987136096    2.67786612208343   -0.34952750984934
C       129.45976637466168    3.39684693333964   -0.43629875216464
C       130.43292583988458    2.47245011139913   -0.31688078892763
C       129.75486230613353    1.19912494985418   -0.15992090764982
N       128.42176017781830    1.35101229267067   -0.18312707652965
C       130.43312551382894   -0.02746645378902   -0.00446261932105
C       129.78263269569013   -1.26520040102495    0.14206216396790
C       130.37629492640431   -2.54466766424574    0.29802567815296
C       129.36261916380582   -3.45447247949164    0.40235683145752
C       128.13067179941521   -2.74867637706410    0.31324688640995
N       128.43797300241465   -1.43088124643015    0.15634748567082
C       126.86087710351502   -3.30649483461000    0.37743299332549
C       125.63508288927967   -2.66546895261111    0.30105910631390
N       125.41552591414911   -1.33737608352593    0.14331121825983
H       124.27505421023484   -4.44763922115957    0.51466307892420
H       122.32856454405433   -2.58620369305628    0.29842954483894
H       122.39473782498708    2.74356519659994   -0.34756773752902
H       124.37452116844247    4.52843435385502   -0.57468138069526
H       126.04636422784047    0.67668786673361   -0.10255330244150
H       126.99945864537811    4.39249051659565   -0.56398844879049
H       129.54214226819838    4.45693594225920   -0.56917266886122
H       131.48873579922736    2.59849226835837   -0.32955581885343
H       131.42257660872767   -2.73069075359159    0.32383591577435
H       129.44258801799486   -4.51801373505973    0.52874597833192
H       127.77148396426902   -0.66528980593146    0.06137071928444
H       126.81793341944433   -4.38368352860473    0.50486294542043
C       140.52622458048481   -3.35913315186190    0.52691331626010
C       139.55417755709931   -2.43427326780659    0.40453365165018
C       140.23357414698384   -1.16216772449332    0.24160909437847
C       139.55649688309214    0.06393121913584    0.08148332411860
C       140.20709596723157    1.30015982113000   -0.07178043062787
C       139.61328204705296    2.57902868171631   -0.23392448772624
C       140.62659517687766    3.48804395775595   -0.34484345229088
C       141.85883530612614    2.78239448348808   -0.25329439062342
N       141.55408606471840    1.46631738339378   -0.08877202984725
C       143.12852259732708    3.33918877491845   -0.32229818000199
C       144.35419970007260    2.69785623420923   -0.24227731442756
C       145.61424818792122    3.41540163859225   -0.33448165628693
C       146.58695733509649    2.48996672199277   -0.21902271858158
C       145.90826180705520    1.21767560793666   -0.05714738006929
N       144.57541177700929    1.37153082498664   -0.07510287998175
C       146.58582041226086   -0.00926825765176    0.09777891291952
C       145.93476598851572   -1.24537682048607    0.25542489204957
C       146.52797799732136   -2.52424526892708    0.41796355043744
C       145.51398381937156   -3.43213761733658    0.53553164442061
C       144.28230337935796   -2.72599064832935    0.44688565079060
N       144.59039003137460   -1.40945775055082    0.27787465010792
C       143.01221231438095   -3.28227836909479    0.51939595944535
C       141.78687538168802   -2.64137065220431    0.43638155469623
N       141.56878461762395   -1.31460139276560    0.26458926583286
H       140.42093661801377   -4.42321148391276    0.66631799880087
H       138.47539487581972   -2.56442127543806    0.42063476686092
H       138.54495242245406    2.76140568847286   -0.25865073106273
H       140.52607146672352    4.54593826726040   -0.47650221067207
H       142.19496261755890    0.69483948240919    0.01156979928540
H       143.15084036352110    4.40933865522713   -0.45526673245343
H       145.69328029821190    4.47166760974367   -0.46671902640803
H       147.63909670438940    2.61141180164109   -0.23492576042328
H       147.56957011472070   -2.71515734799620    0.44124222390368
H       145.58815432838659   -4.49772508639922    0.67227910222202
H       143.92000444612788   -0.64651785238299    0.18290894326488
H       142.96379168088541   -4.36014678510460    0.65958001278385
