119
 xtb: 6.4.1 (bd6e46d)
Cu       11.91222772766220   -0.00058091461359   -0.00998747000580
C        14.43660742063897   -3.43148421473160    0.01605387783909
C        15.39038791007860   -2.47001339691796    0.01736843189474
C        14.70289061050315   -1.21057496787096    0.00832436072602
C        15.35094070964951    0.03401162591857    0.00343820629683
C        14.67669694466101    1.26434722527699   -0.00359166781120
C        15.33740575281895    2.53806103522219   -0.00640541361559
C        14.36350230848348    3.47912038418427   -0.00922763816953
C        13.11101798583965    2.77837736436036   -0.00867752228909
N        13.33543485432050    1.43625123377122   -0.00563171488513
C        11.87496433681334    3.39994100457580   -0.00956485634442
C        10.65358306013917    2.74978698052227   -0.01120950056874
C         9.38128788652572    3.41954636372075   -0.01263696919278
C         8.43331941762449    2.45475365473018   -0.01843878482527
C         9.12522055499855    1.19421835987099   -0.02039374358296
N        10.46544408420162    1.40605733517421   -0.01484695820749
C         8.49716216775833   -0.03908799656832   -0.02969510510575
C         9.15125135565651   -1.25882236413715   -0.03030221610111
C         8.48639839481252   -2.53388602812276   -0.04102533783048
C         9.45467072043459   -3.47827709102478   -0.03317401101671
C        10.71235567434542   -2.78149245555863   -0.01808011997170
N        10.49553840251844   -1.44172091803370   -0.01819611967181
C        11.94725940439679   -3.40533433647673   -0.00447570448436
C        13.16967189244139   -2.75747284310116    0.00555294754071
N        13.36549675132528   -1.41068810803271    0.00215709243176
H        14.56161378904632   -4.49717012956585    0.02356512691149
H        16.45801189263006   -2.58095684827344    0.02345347735437
H        16.40106491636876    2.67151332672880   -0.01062259110822
H        14.46334954249064    4.54629565837837   -0.01746305683942
H        11.86281228985547    4.47904140973796   -0.01328022576641
H         9.25399447071963    4.48292520747425   -0.01125920573507
H         7.36548026152850    2.55994402648700   -0.01886821925073
H         7.41715766019671   -0.05292409626781   -0.03217419344630
H         7.42252667170118   -2.66664804503130   -0.04630063388677
H         9.35258271510708   -4.54789003908766   -0.03080227026347
H        11.96070882583446   -4.48671438051288    0.00126834922674
Cu       43.93926631897243    0.02901639354238   -0.00847017738381
C        41.42469465680733    3.41038035563526    0.58514532230448
C        40.46822531931078    2.46586156015513    0.42067886870720
C        41.15217860910546    1.22309627246730    0.20537923333329
C        40.49989183181082   -0.00151573207258   -0.00185445899184
C        41.17154495426744   -1.21548439581703   -0.20909895896601
C        40.50731699315958   -2.46966458673801   -0.42016297127470
C        41.47860804273829   -3.39909085064232   -0.58367760173317
C        42.73274564645099   -2.71055278776931   -0.47212173771565
N        42.51263620497480   -1.38698605551204   -0.24322291241617
C        43.96633661275715   -3.32643750621013   -0.58364378336073
C        45.18905492492041   -2.68775326772323   -0.47974678649165
C        46.45920816562665   -3.35079419400568   -0.59891461016181
C        47.40994407847921   -2.40169178644938   -0.44174095751479
C        46.72168598847838   -1.15772108431806   -0.22624348935689
N        45.38078739866119   -1.36329374000556   -0.25318084786375
C        47.35376173556955    0.05651639477929   -0.02308434806274
C        46.70253017270393    1.25921351234666    0.18792633540959
C        47.37095772656883    2.51454830078607    0.39997216147397
C        46.40532603968971    3.44619766234590    0.57020405384969
C        45.14585663465372    2.76133084287612    0.46117228737932
N        45.35850941796523    1.44139288311951    0.22865106243828
C        43.91318512021537    3.37865920408828    0.57626727588677
C        42.68949532943586    2.74267139530544    0.46865265677931
N        42.49034684401851    1.41647703191033    0.23693644104510
H        41.30388087188015    4.45364537359631    0.80321027333048
H        39.40126943592301    2.57426780077077    0.46056901270279
H        39.44148429457458   -2.59679303924103   -0.45682716352956
H        41.37322658077552   -4.44682232448139   -0.79751756545562
H        43.97342133961498   -4.38664298029153   -0.80023666734964
H        46.58195988980685   -4.39692702979803   -0.81274764703503
H        48.47679885650030   -2.50828316298963   -0.48441813817674
H        48.43361892964723    0.06444197667401   -0.02792540594020
H        48.43659614741560    2.63668150578693    0.43363826993132
H        46.51251638369686    4.49077071324762    0.78777247562419
H        43.90446918126030    4.43556595472821    0.79804593014408
C        16.74758986685439    0.04749551066973    0.00518123151819
C        17.96763932918950    0.04847578195691    0.00566622290805
C        19.30369920090924    0.05101242166703    0.00472769093485
C        20.52812261994839    0.05735906225030    0.00959687279837
C        21.86401044748352    0.05445018453650    0.00908947952630
C        23.08418026117548    0.05578026484812    0.00501904296948
C        32.76619379939694   -0.01625409171160   -0.00811087596465
C        33.98643165191298   -0.01881903529084   -0.00501700378623
C        35.32247152065690   -0.02020211498952   -0.00332949488800
C        36.54692288408493   -0.01877315025563   -0.00084388440556
C        37.88311096958843   -0.01467678126265   -0.00102337377476
C        39.10309376116881   -0.01202230884048   -0.00131246487776
Cu       27.92474781815725    0.01498039118439   -0.00903670454592
C        25.41130012697985   -3.39618976684985    0.36670907821343
C        24.45250718498863   -2.44377660880039    0.27593447457543
C        25.13378572016428   -1.18915528443976    0.13287677700133
C        24.48006686344709    0.04584868166035   -0.00002179613458
C        25.15202646897656    1.27010962169062   -0.13907512029948
C        24.48948375124166    2.53483231408212   -0.28066867295923
C        25.46239854587200    3.47166822541915   -0.38275080529971
C        26.71521048905666    2.77660497970951   -0.30238900184221
N        26.49266434188360    1.44186034328226   -0.15556303829488
C        27.95040542151063    3.39667409686048   -0.35928847167460
C        29.17607786364108    2.76007971851162   -0.28275153981183
C        30.43909558167583    3.43878798036326   -0.33839112780186
C        31.39782705138613    2.48726967134810   -0.23814084263141
C        30.71645968026723    1.22982084979413   -0.12291708336299
N        29.37858160113423    1.42073373116111   -0.14870411306680
C        31.37015561935569   -0.00714589138077   -0.01040301232656
C        30.69811275692009   -1.23442270621531    0.09848596797805
C        31.36050738564828   -2.50241566007653    0.20805890295275
C        30.38754722277741   -3.44003759748964    0.30230024071946
C        29.13487419964342   -2.74209275619701    0.25035726948827
N        29.35748620129863   -1.40587579672128    0.12284173266249
C        27.89980395391542   -3.36014637656804    0.32701490965194
C        26.67423351475218   -2.72060269156529    0.27947994939033
N        26.47157477120597   -1.38244806414469    0.13937147954078
H        25.29340288120743   -4.45058992062469    0.51197247372291
H        23.38655596930174   -2.55427898497134    0.31704109837811
H        23.42498030769897    2.66549736792597   -0.31787566881827
H        25.35991521353444    4.53113396417236   -0.53379454659688
H        27.95849596374114    4.47020215739607   -0.50345677252663
H        30.55741324079984    4.49907356330299   -0.47194183941582
H        32.46411738532326    2.60456006216565   -0.25894243386114
H        32.42529829956045   -2.63095409423505    0.22806128806763
H        30.49032109094296   -4.49831811009596    0.42870404853533
H        27.89203265008100   -4.43020863154156    0.46415223589330
