119

Fe 11.744282 -0.002611 -0.009731
C 14.243624 -3.392072 0.026622
C 15.235479 -2.470795 0.016916
C 14.594280 -1.191808 0.000872
C 15.269849 0.032525 -0.013582
C 14.570048 1.243085 -0.021660
C 15.185678 2.534645 -0.029727
C 14.175731 3.436122 -0.026282
C 12.950933 2.689198 -0.017546
N 13.213311 1.344264 -0.015786
C 11.709095 3.293668 -0.011795
C 10.481326 2.661574 -0.010735
C 9.237890 3.381515 -0.010637
C 8.250411 2.458235 -0.018423
C 8.893474 1.176254 -0.021650
N 10.251216 1.313672 -0.015894
C 8.235804 -0.037653 -0.029177
C 8.917562 -1.238206 -0.024350
C 8.300268 -2.532802 -0.025110
C 9.305934 -3.436155 -0.010436
C 10.534656 -2.691457 -0.002250
N 10.277749 -1.348457 -0.011921
C 11.774715 -3.298863 0.013330
C 13.004222 -2.669730 0.015107
N 13.239838 -1.319892 0.000860
H 14.324234 -4.461846 0.039713
H 16.297664 -2.620673 0.020362
H 16.244716 2.705479 -0.036190
H 14.235018 4.507376 -0.029571
H 11.698219 4.374488 -0.010381
H 9.156214 4.451499 -0.005864
H 7.188021 2.607691 -0.021266
H 7.156922 -0.048419 -0.036682
H 7.241129 -2.703488 -0.034854
H 9.245690 -4.507570 -0.005704
H 11.785407 -4.379639 0.022971
Fe 44.106493 0.026685 -0.007367
C 41.620106 3.371086 0.600514
C 40.624776 2.468186 0.437156
C 41.261111 1.207511 0.206878
C 40.580852 0.005313 -0.010532
C 41.275915 -1.189030 -0.224305
C 40.655315 -2.457804 -0.452938
C 41.661816 -3.349281 -0.610502
C 42.889483 -2.619055 -0.477548
N 42.632269 -1.294003 -0.241309
C 44.128965 -3.219387 -0.581406
C 45.359140 -2.601681 -0.471710
C 46.599745 -3.315458 -0.597493
C 47.590806 -2.409268 -0.441797
C 46.952725 -1.143965 -0.220732
N 45.594440 -1.274675 -0.240471
C 47.615099 0.049913 -0.015640
C 46.937976 1.234575 0.194607
C 47.560291 2.507604 0.416297
C 46.558096 3.399813 0.581143
C 45.326452 2.670054 0.458941
N 45.578187 1.347080 0.221997
C 44.088711 3.271490 0.573937
C 42.856782 2.656105 0.468097
N 42.616066 1.328702 0.227731
H 41.543598 4.423866 0.792515
H 39.563135 2.619255 0.466344
H 39.595655 -2.621669 -0.484545
H 41.598410 -4.403454 -0.799663
H 44.135662 -4.283803 -0.769165
H 46.677220 -4.369951 -0.780823
H 48.652607 -2.560257 -0.469828
H 48.694032 0.057171 -0.018881
H 48.620111 2.672709 0.438887
H 46.622510 4.454561 0.768048
H 44.082195 4.335220 0.765560
C 16.665236 0.045346 -0.015862
C 17.884761 0.046381 -0.018967
C 19.221261 0.051522 -0.017975
C 20.445188 0.051556 -0.014796
C 21.781544 0.050077 -0.011305
C 23.001196 0.044332 -0.005494
C 32.849419 -0.007643 -0.010747
C 34.069047 -0.014637 -0.016514
C 35.405473 -0.014930 -0.011899
C 36.629334 -0.016696 -0.021395
C 37.965890 -0.011464 -0.015231
C 39.185345 -0.002314 -0.015149
Fe 27.925261 0.018700 -0.004390
C 25.439945 -3.363031 0.356119
C 24.443351 -2.451532 0.261723
C 25.078132 -1.176562 0.125534
C 24.395965 0.037770 -0.003705
C 25.091024 1.244798 -0.132468
C 24.469991 2.526282 -0.270694
C 25.476355 3.426855 -0.366650
C 26.703690 2.689116 -0.285964
N 26.446699 1.350505 -0.143036
C 27.942876 3.295213 -0.347846
C 29.175449 2.676374 -0.280758
C 30.410717 3.401551 -0.354462
C 31.407291 2.490072 -0.259794
C 30.772457 1.214500 -0.129446
N 29.418008 1.334624 -0.141969
C 31.454575 -0.000810 -0.009883
C 30.759552 -1.208552 0.111642
C 31.380598 -2.491276 0.237769
C 30.374244 -3.391754 0.334816
C 29.146911 -2.652730 0.266447
N 29.403865 -1.313574 0.128764
C 27.907738 -3.258041 0.335932
C 26.675182 -2.638398 0.276711
N 26.432575 -1.296843 0.136067
H 25.365083 -4.427396 0.468348
H 23.381937 -2.605621 0.279892
H 23.410297 2.691667 -0.289545
H 25.412953 4.491696 -0.481512
H 27.948653 4.370165 -0.461295
H 30.485623 4.466135 -0.464390
H 32.468715 2.644399 -0.275236
H 32.440318 -2.657483 0.248562
H 30.437639 -4.457362 0.442312
H 27.901963 -4.333158 0.447822
