
  xtb     11212119083D
 xtb: 6.4.1 (bd6e46d)
119142  0     0  0            999 V2000
   11.7443   -0.0026   -0.0097 Fe  0  0  0  0  0  0  0  0  0  0  0  0
   14.2436   -3.3921    0.0266 C   0  0  0  0  0  0  0  0  0  0  0  0
   15.2355   -2.4708    0.0169 C   0  0  0  0  0  0  0  0  0  0  0  0
   14.5943   -1.1918    0.0009 C   0  0  0  0  0  0  0  0  0  0  0  0
   15.2698    0.0325   -0.0136 C   0  0  0  0  0  0  0  0  0  0  0  0
   14.5700    1.2431   -0.0217 C   0  0  0  0  0  0  0  0  0  0  0  0
   15.1857    2.5346   -0.0297 C   0  0  0  0  0  0  0  0  0  0  0  0
   14.1757    3.4361   -0.0263 C   0  0  0  0  0  0  0  0  0  0  0  0
   12.9509    2.6892   -0.0175 C   0  0  0  0  0  0  0  0  0  0  0  0
   13.2133    1.3443   -0.0158 N   0  0  0  0  0  0  0  0  0  0  0  0
   11.7091    3.2937   -0.0118 C   0  0  0  0  0  0  0  0  0  0  0  0
   10.4813    2.6616   -0.0107 C   0  0  0  0  0  0  0  0  0  0  0  0
    9.2379    3.3815   -0.0106 C   0  0  0  0  0  0  0  0  0  0  0  0
    8.2504    2.4582   -0.0184 C   0  0  0  0  0  0  0  0  0  0  0  0
    8.8935    1.1763   -0.0217 C   0  0  0  0  0  0  0  0  0  0  0  0
   10.2512    1.3137   -0.0159 N   0  0  0  0  0  0  0  0  0  0  0  0
    8.2358   -0.0377   -0.0292 C   0  0  0  0  0  0  0  0  0  0  0  0
    8.9176   -1.2382   -0.0244 C   0  0  0  0  0  0  0  0  0  0  0  0
    8.3003   -2.5328   -0.0251 C   0  0  0  0  0  0  0  0  0  0  0  0
    9.3059   -3.4362   -0.0104 C   0  0  0  0  0  0  0  0  0  0  0  0
   10.5347   -2.6915   -0.0023 C   0  0  0  0  0  0  0  0  0  0  0  0
   10.2777   -1.3485   -0.0119 N   0  0  0  0  0  0  0  0  0  0  0  0
   11.7747   -3.2989    0.0133 C   0  0  0  0  0  0  0  0  0  0  0  0
   13.0042   -2.6697    0.0151 C   0  0  0  0  0  0  0  0  0  0  0  0
   13.2398   -1.3199    0.0009 N   0  0  0  0  0  0  0  0  0  0  0  0
   14.3242   -4.4618    0.0397 H   0  0  0  0  0  0  0  0  0  0  0  0
   16.2977   -2.6207    0.0204 H   0  0  0  0  0  0  0  0  0  0  0  0
   16.2447    2.7055   -0.0362 H   0  0  0  0  0  0  0  0  0  0  0  0
   14.2350    4.5074   -0.0296 H   0  0  0  0  0  0  0  0  0  0  0  0
   11.6982    4.3745   -0.0104 H   0  0  0  0  0  0  0  0  0  0  0  0
    9.1562    4.4515   -0.0059 H   0  0  0  0  0  0  0  0  0  0  0  0
    7.1880    2.6077   -0.0213 H   0  0  0  0  0  0  0  0  0  0  0  0
    7.1569   -0.0484   -0.0367 H   0  0  0  0  0  0  0  0  0  0  0  0
    7.2411   -2.7035   -0.0349 H   0  0  0  0  0  0  0  0  0  0  0  0
    9.2457   -4.5076   -0.0057 H   0  0  0  0  0  0  0  0  0  0  0  0
   11.7854   -4.3796    0.0230 H   0  0  0  0  0  0  0  0  0  0  0  0
   44.1065    0.0267   -0.0074 Fe  0  0  0  0  0  0  0  0  0  0  0  0
   41.6201    3.3711    0.6005 C   0  0  0  0  0  0  0  0  0  0  0  0
   40.6248    2.4682    0.4372 C   0  0  0  0  0  0  0  0  0  0  0  0
   41.2611    1.2075    0.2069 C   0  0  0  0  0  0  0  0  0  0  0  0
   40.5809    0.0053   -0.0105 C   0  0  0  0  0  0  0  0  0  0  0  0
   41.2759   -1.1890   -0.2243 C   0  0  0  0  0  0  0  0  0  0  0  0
   40.6553   -2.4578   -0.4529 C   0  0  0  0  0  0  0  0  0  0  0  0
   41.6618   -3.3493   -0.6105 C   0  0  0  0  0  0  0  0  0  0  0  0
   42.8895   -2.6191   -0.4775 C   0  0  0  0  0  0  0  0  0  0  0  0
   42.6323   -1.2940   -0.2413 N   0  0  0  0  0  0  0  0  0  0  0  0
   44.1290   -3.2194   -0.5814 C   0  0  0  0  0  0  0  0  0  0  0  0
   45.3591   -2.6017   -0.4717 C   0  0  0  0  0  0  0  0  0  0  0  0
   46.5997   -3.3155   -0.5975 C   0  0  0  0  0  0  0  0  0  0  0  0
   47.5908   -2.4093   -0.4418 C   0  0  0  0  0  0  0  0  0  0  0  0
   46.9527   -1.1440   -0.2207 C   0  0  0  0  0  0  0  0  0  0  0  0
   45.5944   -1.2747   -0.2405 N   0  0  0  0  0  0  0  0  0  0  0  0
   47.6151    0.0499   -0.0156 C   0  0  0  0  0  0  0  0  0  0  0  0
   46.9380    1.2346    0.1946 C   0  0  0  0  0  0  0  0  0  0  0  0
   47.5603    2.5076    0.4163 C   0  0  0  0  0  0  0  0  0  0  0  0
   46.5581    3.3998    0.5811 C   0  0  0  0  0  0  0  0  0  0  0  0
   45.3265    2.6701    0.4589 C   0  0  0  0  0  0  0  0  0  0  0  0
   45.5782    1.3471    0.2220 N   0  0  0  0  0  0  0  0  0  0  0  0
   44.0887    3.2715    0.5739 C   0  0  0  0  0  0  0  0  0  0  0  0
   42.8568    2.6561    0.4681 C   0  0  0  0  0  0  0  0  0  0  0  0
   42.6161    1.3287    0.2277 N   0  0  0  0  0  0  0  0  0  0  0  0
   41.5436    4.4239    0.7925 H   0  0  0  0  0  0  0  0  0  0  0  0
   39.5631    2.6193    0.4663 H   0  0  0  0  0  0  0  0  0  0  0  0
   39.5957   -2.6217   -0.4845 H   0  0  0  0  0  0  0  0  0  0  0  0
   41.5984   -4.4035   -0.7997 H   0  0  0  0  0  0  0  0  0  0  0  0
   44.1357   -4.2838   -0.7692 H   0  0  0  0  0  0  0  0  0  0  0  0
   46.6772   -4.3700   -0.7808 H   0  0  0  0  0  0  0  0  0  0  0  0
   48.6526   -2.5603   -0.4698 H   0  0  0  0  0  0  0  0  0  0  0  0
   48.6940    0.0572   -0.0189 H   0  0  0  0  0  0  0  0  0  0  0  0
   48.6201    2.6727    0.4389 H   0  0  0  0  0  0  0  0  0  0  0  0
   46.6225    4.4546    0.7680 H   0  0  0  0  0  0  0  0  0  0  0  0
   44.0822    4.3352    0.7656 H   0  0  0  0  0  0  0  0  0  0  0  0
   16.6652    0.0453   -0.0159 C   0  0  0  0  0  0  0  0  0  0  0  0
   17.8848    0.0464   -0.0190 C   0  0  0  0  0  0  0  0  0  0  0  0
   19.2213    0.0515   -0.0180 C   0  0  0  0  0  0  0  0  0  0  0  0
   20.4452    0.0516   -0.0148 C   0  0  0  0  0  0  0  0  0  0  0  0
   21.7815    0.0501   -0.0113 C   0  0  0  0  0  0  0  0  0  0  0  0
   23.0012    0.0443   -0.0055 C   0  0  0  0  0  0  0  0  0  0  0  0
   32.8494   -0.0076   -0.0107 C   0  0  0  0  0  0  0  0  0  0  0  0
   34.0690   -0.0146   -0.0165 C   0  0  0  0  0  0  0  0  0  0  0  0
   35.4055   -0.0149   -0.0119 C   0  0  0  0  0  0  0  0  0  0  0  0
   36.6293   -0.0167   -0.0214 C   0  0  0  0  0  0  0  0  0  0  0  0
   37.9659   -0.0115   -0.0152 C   0  0  0  0  0  0  0  0  0  0  0  0
   39.1853   -0.0023   -0.0151 C   0  0  0  0  0  0  0  0  0  0  0  0
   27.9253    0.0187   -0.0044 Fe  0  0  0  0  0  0  0  0  0  0  0  0
   25.4399   -3.3630    0.3561 C   0  0  0  0  0  0  0  0  0  0  0  0
   24.4434   -2.4515    0.2617 C   0  0  0  0  0  0  0  0  0  0  0  0
   25.0781   -1.1766    0.1255 C   0  0  0  0  0  0  0  0  0  0  0  0
   24.3960    0.0378   -0.0037 C   0  0  0  0  0  0  0  0  0  0  0  0
   25.0910    1.2448   -0.1325 C   0  0  0  0  0  0  0  0  0  0  0  0
   24.4700    2.5263   -0.2707 C   0  0  0  0  0  0  0  0  0  0  0  0
   25.4764    3.4269   -0.3666 C   0  0  0  0  0  0  0  0  0  0  0  0
   26.7037    2.6891   -0.2860 C   0  0  0  0  0  0  0  0  0  0  0  0
   26.4467    1.3505   -0.1430 N   0  0  0  0  0  0  0  0  0  0  0  0
   27.9429    3.2952   -0.3478 C   0  0  0  0  0  0  0  0  0  0  0  0
   29.1754    2.6764   -0.2808 C   0  0  0  0  0  0  0  0  0  0  0  0
   30.4107    3.4016   -0.3545 C   0  0  0  0  0  0  0  0  0  0  0  0
   31.4073    2.4901   -0.2598 C   0  0  0  0  0  0  0  0  0  0  0  0
   30.7725    1.2145   -0.1294 C   0  0  0  0  0  0  0  0  0  0  0  0
   29.4180    1.3346   -0.1420 N   0  0  0  0  0  0  0  0  0  0  0  0
   31.4546   -0.0008   -0.0099 C   0  0  0  0  0  0  0  0  0  0  0  0
   30.7596   -1.2086    0.1116 C   0  0  0  0  0  0  0  0  0  0  0  0
   31.3806   -2.4913    0.2378 C   0  0  0  0  0  0  0  0  0  0  0  0
   30.3742   -3.3918    0.3348 C   0  0  0  0  0  0  0  0  0  0  0  0
   29.1469   -2.6527    0.2664 C   0  0  0  0  0  0  0  0  0  0  0  0
   29.4039   -1.3136    0.1288 N   0  0  0  0  0  0  0  0  0  0  0  0
   27.9077   -3.2580    0.3359 C   0  0  0  0  0  0  0  0  0  0  0  0
   26.6752   -2.6384    0.2767 C   0  0  0  0  0  0  0  0  0  0  0  0
   26.4326   -1.2968    0.1361 N   0  0  0  0  0  0  0  0  0  0  0  0
   25.3651   -4.4274    0.4683 H   0  0  0  0  0  0  0  0  0  0  0  0
   23.3819   -2.6056    0.2799 H   0  0  0  0  0  0  0  0  0  0  0  0
   23.4103    2.6917   -0.2895 H   0  0  0  0  0  0  0  0  0  0  0  0
   25.4130    4.4917   -0.4815 H   0  0  0  0  0  0  0  0  0  0  0  0
   27.9487    4.3702   -0.4613 H   0  0  0  0  0  0  0  0  0  0  0  0
   30.4856    4.4661   -0.4644 H   0  0  0  0  0  0  0  0  0  0  0  0
   32.4687    2.6444   -0.2752 H   0  0  0  0  0  0  0  0  0  0  0  0
   32.4403   -2.6575    0.2486 H   0  0  0  0  0  0  0  0  0  0  0  0
   30.4376   -4.4574    0.4423 H   0  0  0  0  0  0  0  0  0  0  0  0
   27.9020   -4.3332    0.4478 H   0  0  0  0  0  0  0  0  0  0  0  0
  2  3  2  0  0  0  0
  3  4  1  0  0  0  0
  4  5  4  0  0  0  0
  5  6  4  0  0  0  0
  6  7  1  0  0  0  0
  7  8  2  0  0  0  0
  8  9  1  0  0  0  0
  1 10  1  0  0  0  0
  6 10  4  0  0  0  0
  9 10  4  0  0  0  0
  9 11  4  0  0  0  0
 11 12  4  0  0  0  0
 12 13  1  0  0  0  0
 13 14  2  0  0  0  0
 14 15  1  0  0  0  0
  1 16  1  0  0  0  0
 12 16  4  0  0  0  0
 15 16  4  0  0  0  0
 15 17  4  0  0  0  0
 17 18  4  0  0  0  0
 18 19  1  0  0  0  0
 19 20  2  0  0  0  0
 20 21  1  0  0  0  0
  1 22  1  0  0  0  0
 18 22  4  0  0  0  0
 21 22  4  0  0  0  0
 21 23  4  0  0  0  0
  2 24  1  0  0  0  0
 23 24  4  0  0  0  0
  1 25  1  0  0  0  0
  4 25  4  0  0  0  0
 24 25  4  0  0  0  0
  2 26  1  0  0  0  0
  3 27  1  0  0  0  0
  7 28  1  0  0  0  0
  8 29  1  0  0  0  0
 11 30  1  0  0  0  0
 13 31  1  0  0  0  0
 14 32  1  0  0  0  0
 17 33  1  0  0  0  0
 19 34  1  0  0  0  0
 20 35  1  0  0  0  0
 23 36  1  0  0  0  0
 38 39  2  0  0  0  0
 39 40  1  0  0  0  0
 40 41  4  0  0  0  0
 41 42  4  0  0  0  0
 42 43  1  0  0  0  0
 43 44  2  0  0  0  0
 44 45  1  0  0  0  0
 37 46  1  0  0  0  0
 42 46  4  0  0  0  0
 45 46  4  0  0  0  0
 45 47  4  0  0  0  0
 47 48  4  0  0  0  0
 48 49  1  0  0  0  0
 49 50  2  0  0  0  0
 50 51  1  0  0  0  0
 37 52  1  0  0  0  0
 48 52  4  0  0  0  0
 51 52  4  0  0  0  0
 51 53  4  0  0  0  0
 53 54  4  0  0  0  0
 54 55  1  0  0  0  0
 55 56  2  0  0  0  0
 56 57  1  0  0  0  0
 37 58  1  0  0  0  0
 54 58  4  0  0  0  0
 57 58  4  0  0  0  0
 57 59  4  0  0  0  0
 38 60  1  0  0  0  0
 59 60  4  0  0  0  0
 37 61  1  0  0  0  0
 40 61  4  0  0  0  0
 60 61  4  0  0  0  0
 38 62  1  0  0  0  0
 39 63  1  0  0  0  0
 43 64  1  0  0  0  0
 44 65  1  0  0  0  0
 47 66  1  0  0  0  0
 49 67  1  0  0  0  0
 50 68  1  0  0  0  0
 53 69  1  0  0  0  0
 55 70  1  0  0  0  0
 56 71  1  0  0  0  0
 59 72  1  0  0  0  0
  5 73  1  0  0  0  0
 73 74  3  0  0  0  0
 74 75  4  0  0  0  0
 75 76  3  0  0  0  0
 76 77  4  0  0  0  0
 77 78  3  0  0  0  0
 79 80  3  0  0  0  0
 80 81  4  0  0  0  0
 81 82  3  0  0  0  0
 82 83  4  0  0  0  0
 41 84  1  0  0  0  0
 83 84  3  0  0  0  0
 86 87  2  0  0  0  0
 87 88  1  0  0  0  0
 78 89  1  0  0  0  0
 88 89  4  0  0  0  0
 89 90  4  0  0  0  0
 90 91  1  0  0  0  0
 91 92  2  0  0  0  0
 92 93  1  0  0  0  0
 85 94  1  0  0  0  0
 90 94  4  0  0  0  0
 93 94  4  0  0  0  0
 93 95  4  0  0  0  0
 95 96  4  0  0  0  0
 96 97  1  0  0  0  0
 97 98  2  0  0  0  0
 98 99  1  0  0  0  0
 85100  1  0  0  0  0
 96100  4  0  0  0  0
 99100  4  0  0  0  0
 79101  1  0  0  0  0
 99101  4  0  0  0  0
101102  4  0  0  0  0
102103  1  0  0  0  0
103104  2  0  0  0  0
104105  1  0  0  0  0
 85106  1  0  0  0  0
102106  4  0  0  0  0
105106  4  0  0  0  0
105107  4  0  0  0  0
 86108  1  0  0  0  0
107108  4  0  0  0  0
 85109  1  0  0  0  0
 88109  4  0  0  0  0
108109  4  0  0  0  0
 86110  1  0  0  0  0
 87111  1  0  0  0  0
 91112  1  0  0  0  0
 92113  1  0  0  0  0
 95114  1  0  0  0  0
 97115  1  0  0  0  0
 98116  1  0  0  0  0
103117  1  0  0  0  0
104118  1  0  0  0  0
107119  1  0  0  0  0
M  END
