
  xtb     11192114593D
 xtb: 6.4.1 (bd6e46d)
152171  0     0  0            999 V2000
  -13.4400    3.5804    0.5881 C   0  0  0  0  0  0  0  0  0  0  0  0
  -12.6174    2.5311    0.3946 C   0  0  0  0  0  0  0  0  0  0  0  0
  -13.4782    1.3747    0.2200 C   0  0  0  0  0  0  0  0  0  0  0  0
  -12.9856    0.0743   -0.0037 C   0  0  0  0  0  0  0  0  0  0  0  0
  -13.7933   -1.0649   -0.1432 C   0  0  0  0  0  0  0  0  0  0  0  0
  -13.3674   -2.3977   -0.3891 C   0  0  0  0  0  0  0  0  0  0  0  0
  -14.4839   -3.1798   -0.4592 C   0  0  0  0  0  0  0  0  0  0  0  0
  -15.6167   -2.3408   -0.2620 C   0  0  0  0  0  0  0  0  0  0  0  0
  -15.1483   -1.0758   -0.0760 N   0  0  0  0  0  0  0  0  0  0  0  0
  -16.9468   -2.7346   -0.2640 C   0  0  0  0  0  0  0  0  0  0  0  0
  -18.0643   -1.9299   -0.0912 C   0  0  0  0  0  0  0  0  0  0  0  0
  -19.4221   -2.4549   -0.1150 C   0  0  0  0  0  0  0  0  0  0  0  0
  -20.2361   -1.4010    0.0794 C   0  0  0  0  0  0  0  0  0  0  0  0
  -19.3696   -0.2409    0.2198 C   0  0  0  0  0  0  0  0  0  0  0  0
  -18.0719   -0.5962    0.1124 N   0  0  0  0  0  0  0  0  0  0  0  0
  -19.8471    1.0457    0.4355 C   0  0  0  0  0  0  0  0  0  0  0  0
  -19.0641    2.1812    0.5745 C   0  0  0  0  0  0  0  0  0  0  0  0
  -19.4929    3.5200    0.8038 C   0  0  0  0  0  0  0  0  0  0  0  0
  -18.3794    4.3036    0.8762 C   0  0  0  0  0  0  0  0  0  0  0  0
  -17.2417    3.4646    0.6927 C   0  0  0  0  0  0  0  0  0  0  0  0
  -17.7058    2.1998    0.5144 N   0  0  0  0  0  0  0  0  0  0  0  0
  -15.9114    3.8561    0.7014 C   0  0  0  0  0  0  0  0  0  0  0  0
  -14.7928    3.0530    0.5343 C   0  0  0  0  0  0  0  0  0  0  0  0
  -14.7744    1.7169    0.3125 N   0  0  0  0  0  0  0  0  0  0  0  0
  -13.1921    4.6108    0.7568 H   0  0  0  0  0  0  0  0  0  0  0  0
  -11.5452    2.5030    0.3822 H   0  0  0  0  0  0  0  0  0  0  0  0
  -12.3454   -2.7008   -0.5061 H   0  0  0  0  0  0  0  0  0  0  0  0
  -14.5296   -4.2372   -0.6339 H   0  0  0  0  0  0  0  0  0  0  0  0
  -15.7136   -0.2501    0.0838 H   0  0  0  0  0  0  0  0  0  0  0  0
  -17.1309   -3.7883   -0.4220 H   0  0  0  0  0  0  0  0  0  0  0  0
  -19.6743   -3.4878   -0.2619 H   0  0  0  0  0  0  0  0  0  0  0  0
  -21.3079   -1.3720    0.1278 H   0  0  0  0  0  0  0  0  0  0  0  0
  -20.9180    1.1722    0.5019 H   0  0  0  0  0  0  0  0  0  0  0  0
  -20.5164    3.8265    0.8999 H   0  0  0  0  0  0  0  0  0  0  0  0
  -18.3355    5.3627    1.0415 H   0  0  0  0  0  0  0  0  0  0  0  0
  -17.1421    1.3727    0.3587 H   0  0  0  0  0  0  0  0  0  0  0  0
  -15.7252    4.9091    0.8626 H   0  0  0  0  0  0  0  0  0  0  0  0
   14.2708   -2.4507   -1.7304 C   0  0  0  0  0  0  0  0  0  0  0  0
   13.2175   -1.7839   -1.2197 C   0  0  0  0  0  0  0  0  0  0  0  0
   13.7730   -0.6670   -0.4767 C   0  0  0  0  0  0  0  0  0  0  0  0
   12.9806    0.2712    0.2120 C   0  0  0  0  0  0  0  0  0  0  0  0
   13.4924    1.3743    0.9145 C   0  0  0  0  0  0  0  0  0  0  0  0
   12.7584    2.3413    1.6520 C   0  0  0  0  0  0  0  0  0  0  0  0
   13.6544    3.2319    2.1690 C   0  0  0  0  0  0  0  0  0  0  0  0
   14.9563    2.8255    1.7626 C   0  0  0  0  0  0  0  0  0  0  0  0
   14.8058    1.7004    1.0102 N   0  0  0  0  0  0  0  0  0  0  0  0
   16.1525    3.4547    2.0751 C   0  0  0  0  0  0  0  0  0  0  0  0
   17.4321    3.0632    1.7077 C   0  0  0  0  0  0  0  0  0  0  0  0
   18.6234    3.8039    2.0975 C   0  0  0  0  0  0  0  0  0  0  0  0
   19.6691    3.1337    1.5791 C   0  0  0  0  0  0  0  0  0  0  0  0
   19.1084    1.9891    0.8777 C   0  0  0  0  0  0  0  0  0  0  0  0
   17.7623    1.9803    0.9739 N   0  0  0  0  0  0  0  0  0  0  0  0
   19.8837    1.0480    0.2118 C   0  0  0  0  0  0  0  0  0  0  0  0
   19.3973   -0.0577   -0.4684 C   0  0  0  0  0  0  0  0  0  0  0  0
   20.1376   -1.0514   -1.1707 C   0  0  0  0  0  0  0  0  0  0  0  0
   19.2448   -1.9422   -1.6889 C   0  0  0  0  0  0  0  0  0  0  0  0
   17.9363   -1.5164   -1.3167 C   0  0  0  0  0  0  0  0  0  0  0  0
   18.0816   -0.3817   -0.5832 N   0  0  0  0  0  0  0  0  0  0  0  0
   16.7383   -2.1328   -1.6459 C   0  0  0  0  0  0  0  0  0  0  0  0
   15.4569   -1.7304   -1.2991 C   0  0  0  0  0  0  0  0  0  0  0  0
   15.1151   -0.6572   -0.5470 N   0  0  0  0  0  0  0  0  0  0  0  0
   14.2800   -3.3338   -2.3400 H   0  0  0  0  0  0  0  0  0  0  0  0
   12.1700   -1.9878   -1.3259 H   0  0  0  0  0  0  0  0  0  0  0  0
   11.6932    2.3358    1.7751 H   0  0  0  0  0  0  0  0  0  0  0  0
   13.4442    4.0893    2.7784 H   0  0  0  0  0  0  0  0  0  0  0  0
   15.5534    1.1667    0.5819 H   0  0  0  0  0  0  0  0  0  0  0  0
   16.0761    4.3492    2.6778 H   0  0  0  0  0  0  0  0  0  0  0  0
   18.6183    4.7029    2.6837 H   0  0  0  0  0  0  0  0  0  0  0  0
   20.7168    3.3571    1.6435 H   0  0  0  0  0  0  0  0  0  0  0  0
   20.9547    1.1893    0.2246 H   0  0  0  0  0  0  0  0  0  0  0  0
   21.2064   -1.0690   -1.2597 H   0  0  0  0  0  0  0  0  0  0  0  0
   19.4581   -2.8148   -2.2754 H   0  0  0  0  0  0  0  0  0  0  0  0
   17.3343    0.1642   -0.1714 H   0  0  0  0  0  0  0  0  0  0  0  0
   16.8125   -3.0284   -2.2474 H   0  0  0  0  0  0  0  0  0  0  0  0
  -11.5979   -0.0961   -0.0939 C   0  0  0  0  0  0  0  0  0  0  0  0
  -10.3956   -0.2374   -0.1770 C   0  0  0  0  0  0  0  0  0  0  0  0
   -0.6079   -1.0050   -0.2888 C   0  0  0  0  0  0  0  0  0  0  0  0
    0.6020   -0.9715   -0.1952 C   0  0  0  0  0  0  0  0  0  0  0  0
   10.3834   -0.0272    0.1822 C   0  0  0  0  0  0  0  0  0  0  0  0
   11.5895    0.1070    0.1971 C   0  0  0  0  0  0  0  0  0  0  0  0
   -8.2587   -3.6710    0.9137 C   0  0  0  0  0  0  0  0  0  0  0  0
   -9.1656   -2.7126    0.6405 C   0  0  0  0  0  0  0  0  0  0  0  0
   -8.4103   -1.5795    0.1393 C   0  0  0  0  0  0  0  0  0  0  0  0
   -9.0045   -0.3684   -0.2641 C   0  0  0  0  0  0  0  0  0  0  0  0
   -8.2791    0.7283   -0.7576 C   0  0  0  0  0  0  0  0  0  0  0  0
   -8.7902    1.9599   -1.2446 C   0  0  0  0  0  0  0  0  0  0  0  0
   -7.7249    2.7150   -1.6447 C   0  0  0  0  0  0  0  0  0  0  0  0
   -6.5419    1.9607   -1.4088 C   0  0  0  0  0  0  0  0  0  0  0  0
   -6.9283    0.7702   -0.8740 N   0  0  0  0  0  0  0  0  0  0  0  0
   -5.2427    2.3695   -1.6756 C   0  0  0  0  0  0  0  0  0  0  0  0
   -4.0626    1.6805   -1.4479 C   0  0  0  0  0  0  0  0  0  0  0  0
   -2.7616    2.2443   -1.7648 C   0  0  0  0  0  0  0  0  0  0  0  0
   -1.8498    1.3256   -1.3914 C   0  0  0  0  0  0  0  0  0  0  0  0
   -2.6054    0.2078   -0.8558 C   0  0  0  0  0  0  0  0  0  0  0  0
   -3.9268    0.4446   -0.9091 N   0  0  0  0  0  0  0  0  0  0  0  0
   -2.0047   -0.9699   -0.3670 C   0  0  0  0  0  0  0  0  0  0  0  0
   -2.7301   -2.0938    0.0582 C   0  0  0  0  0  0  0  0  0  0  0  0
   -2.2218   -3.3311    0.5327 C   0  0  0  0  0  0  0  0  0  0  0  0
   -3.2923   -4.1231    0.8364 C   0  0  0  0  0  0  0  0  0  0  0  0
   -4.4763   -3.3819    0.5640 C   0  0  0  0  0  0  0  0  0  0  0  0
   -4.0844   -2.1675    0.0900 N   0  0  0  0  0  0  0  0  0  0  0  0
   -5.7792   -3.8114    0.7762 C   0  0  0  0  0  0  0  0  0  0  0  0
   -6.9589   -3.1083    0.5875 C   0  0  0  0  0  0  0  0  0  0  0  0
   -7.0926   -1.8438    0.1212 N   0  0  0  0  0  0  0  0  0  0  0  0
   -8.4165   -4.6586    1.3027 H   0  0  0  0  0  0  0  0  0  0  0  0
  -10.2312   -2.7308    0.7622 H   0  0  0  0  0  0  0  0  0  0  0  0
   -9.8305    2.2155   -1.2928 H   0  0  0  0  0  0  0  0  0  0  0  0
   -7.7469    3.7014   -2.0656 H   0  0  0  0  0  0  0  0  0  0  0  0
   -6.3257    0.0018   -0.6000 H   0  0  0  0  0  0  0  0  0  0  0  0
   -5.1407    3.3552   -2.1092 H   0  0  0  0  0  0  0  0  0  0  0  0
   -2.6054    3.2086   -2.2089 H   0  0  0  0  0  0  0  0  0  0  0  0
   -0.7813    1.3582   -1.4771 H   0  0  0  0  0  0  0  0  0  0  0  0
   -1.1801   -3.5674    0.6288 H   0  0  0  0  0  0  0  0  0  0  0  0
   -3.2738   -5.1246    1.2204 H   0  0  0  0  0  0  0  0  0  0  0  0
   -4.6856   -1.4016   -0.1938 H   0  0  0  0  0  0  0  0  0  0  0  0
   -5.8837   -4.8171    1.1607 H   0  0  0  0  0  0  0  0  0  0  0  0
    2.6360    2.5962    0.5169 C   0  0  0  0  0  0  0  0  0  0  0  0
    1.7566    1.5922    0.3339 C   0  0  0  0  0  0  0  0  0  0  0  0
    2.5532    0.3963    0.1276 C   0  0  0  0  0  0  0  0  0  0  0  0
    1.9949   -0.8781   -0.0984 C   0  0  0  0  0  0  0  0  0  0  0  0
    2.7585   -2.0483   -0.2308 C   0  0  0  0  0  0  0  0  0  0  0  0
    2.2947   -3.3725   -0.4440 C   0  0  0  0  0  0  0  0  0  0  0  0
    3.3913   -4.1843   -0.5066 C   0  0  0  0  0  0  0  0  0  0  0  0
    4.5476   -3.3715   -0.3396 C   0  0  0  0  0  0  0  0  0  0  0  0
    4.1135   -2.0919   -0.1760 N   0  0  0  0  0  0  0  0  0  0  0  0
    5.8648   -3.8100   -0.3468 C   0  0  0  0  0  0  0  0  0  0  0  0
    7.0235   -3.0609   -0.2161 C   0  0  0  0  0  0  0  0  0  0  0  0
    8.3452   -3.6653   -0.2395 C   0  0  0  0  0  0  0  0  0  0  0  0
    9.2260   -2.6552   -0.1015 C   0  0  0  0  0  0  0  0  0  0  0  0
    8.4326   -1.4447    0.0025 C   0  0  0  0  0  0  0  0  0  0  0  0
    7.1182   -1.7184   -0.0627 N   0  0  0  0  0  0  0  0  0  0  0  0
    8.9903   -0.1615    0.1616 C   0  0  0  0  0  0  0  0  0  0  0  0
    8.2231    1.0063    0.3069 C   0  0  0  0  0  0  0  0  0  0  0  0
    8.6882    2.3375    0.4679 C   0  0  0  0  0  0  0  0  0  0  0  0
    7.5913    3.1433    0.5803 C   0  0  0  0  0  0  0  0  0  0  0  0
    6.4342    2.3216    0.4821 C   0  0  0  0  0  0  0  0  0  0  0  0
    6.8672    1.0419    0.3162 N   0  0  0  0  0  0  0  0  0  0  0  0
    5.1165    2.7536    0.5443 C   0  0  0  0  0  0  0  0  0  0  0  0
    3.9589    2.0027    0.4224 C   0  0  0  0  0  0  0  0  0  0  0  0
    3.8669    0.6701    0.1946 N   0  0  0  0  0  0  0  0  0  0  0  0
    2.4446    3.6358    0.7011 H   0  0  0  0  0  0  0  0  0  0  0  0
    0.6848    1.6198    0.3501 H   0  0  0  0  0  0  0  0  0  0  0  0
    1.2634   -3.6506   -0.5405 H   0  0  0  0  0  0  0  0  0  0  0  0
    3.4083   -5.2462   -0.6578 H   0  0  0  0  0  0  0  0  0  0  0  0
    4.6860   -1.2657   -0.0398 H   0  0  0  0  0  0  0  0  0  0  0  0
    6.0021   -4.8751   -0.4774 H   0  0  0  0  0  0  0  0  0  0  0  0
    8.5345   -4.7162   -0.3454 H   0  0  0  0  0  0  0  0  0  0  0  0
   10.2969   -2.6907   -0.0550 H   0  0  0  0  0  0  0  0  0  0  0  0
    9.7203    2.6279    0.4812 H   0  0  0  0  0  0  0  0  0  0  0  0
    7.5752    4.2075    0.7140 H   0  0  0  0  0  0  0  0  0  0  0  0
    6.2933    0.2127    0.2067 H   0  0  0  0  0  0  0  0  0  0  0  0
    4.9788    3.8148    0.7025 H   0  0  0  0  0  0  0  0  0  0  0  0
  1  2  2  0  0  0  0
  2  3  1  0  0  0  0
  3  4  4  0  0  0  0
  4  5  4  0  0  0  0
  5  6  4  0  0  0  0
  6  7  2  0  0  0  0
  7  8  4  0  0  0  0
  5  9  4  0  0  0  0
  8  9  4  0  0  0  0
  8 10  4  0  0  0  0
 10 11  4  0  0  0  0
 11 12  1  0  0  0  0
 12 13  2  0  0  0  0
 13 14  1  0  0  0  0
 11 15  4  0  0  0  0
 14 15  4  0  0  0  0
 14 16  4  0  0  0  0
 16 17  4  0  0  0  0
 17 18  4  0  0  0  0
 18 19  2  0  0  0  0
 19 20  4  0  0  0  0
 17 21  4  0  0  0  0
 20 21  4  0  0  0  0
 20 22  4  0  0  0  0
  1 23  1  0  0  0  0
 22 23  4  0  0  0  0
  3 24  4  0  0  0  0
 23 24  4  0  0  0  0
  1 25  1  0  0  0  0
  2 26  1  0  0  0  0
  6 27  1  0  0  0  0
  7 28  1  0  0  0  0
  9 29  1  0  0  0  0
 10 30  1  0  0  0  0
 12 31  1  0  0  0  0
 13 32  1  0  0  0  0
 16 33  1  0  0  0  0
 18 34  1  0  0  0  0
 19 35  1  0  0  0  0
 21 36  1  0  0  0  0
 22 37  1  0  0  0  0
 38 39  2  0  0  0  0
 39 40  1  0  0  0  0
 40 41  4  0  0  0  0
 41 42  4  0  0  0  0
 42 43  4  0  0  0  0
 43 44  2  0  0  0  0
 44 45  4  0  0  0  0
 42 46  4  0  0  0  0
 45 46  4  0  0  0  0
 45 47  4  0  0  0  0
 47 48  4  0  0  0  0
 48 49  1  0  0  0  0
 49 50  2  0  0  0  0
 50 51  1  0  0  0  0
 48 52  4  0  0  0  0
 51 52  4  0  0  0  0
 51 53  4  0  0  0  0
 53 54  4  0  0  0  0
 54 55  4  0  0  0  0
 55 56  2  0  0  0  0
 56 57  4  0  0  0  0
 54 58  4  0  0  0  0
 57 58  4  0  0  0  0
 57 59  4  0  0  0  0
 38 60  1  0  0  0  0
 59 60  4  0  0  0  0
 40 61  4  0  0  0  0
 60 61  4  0  0  0  0
 38 62  1  0  0  0  0
 39 63  1  0  0  0  0
 43 64  1  0  0  0  0
 44 65  1  0  0  0  0
 46 66  1  0  0  0  0
 47 67  1  0  0  0  0
 49 68  1  0  0  0  0
 50 69  1  0  0  0  0
 53 70  1  0  0  0  0
 55 71  1  0  0  0  0
 56 72  1  0  0  0  0
 58 73  1  0  0  0  0
 59 74  1  0  0  0  0
  4 75  1  0  0  0  0
 75 76  3  0  0  0  0
 77 78  3  0  0  0  0
 41 80  1  0  0  0  0
 79 80  3  0  0  0  0
 81 82  2  0  0  0  0
 82 83  1  0  0  0  0
 76 84  1  0  0  0  0
 83 84  4  0  0  0  0
 84 85  4  0  0  0  0
 85 86  4  0  0  0  0
 86 87  2  0  0  0  0
 87 88  4  0  0  0  0
 85 89  4  0  0  0  0
 88 89  4  0  0  0  0
 88 90  4  0  0  0  0
 90 91  4  0  0  0  0
 91 92  1  0  0  0  0
 92 93  2  0  0  0  0
 93 94  1  0  0  0  0
 91 95  4  0  0  0  0
 94 95  4  0  0  0  0
 77 96  1  0  0  0  0
 94 96  4  0  0  0  0
 96 97  4  0  0  0  0
 97 98  4  0  0  0  0
 98 99  2  0  0  0  0
 99100  4  0  0  0  0
 97101  4  0  0  0  0
100101  4  0  0  0  0
100102  4  0  0  0  0
 81103  1  0  0  0  0
102103  4  0  0  0  0
 83104  4  0  0  0  0
103104  4  0  0  0  0
 81105  1  0  0  0  0
 82106  1  0  0  0  0
 86107  1  0  0  0  0
 87108  1  0  0  0  0
 89109  1  0  0  0  0
 90110  1  0  0  0  0
 92111  1  0  0  0  0
 93112  1  0  0  0  0
 98113  1  0  0  0  0
 99114  1  0  0  0  0
101115  1  0  0  0  0
102116  1  0  0  0  0
117118  2  0  0  0  0
118119  1  0  0  0  0
 78120  1  0  0  0  0
119120  4  0  0  0  0
120121  4  0  0  0  0
121122  4  0  0  0  0
122123  2  0  0  0  0
123124  4  0  0  0  0
121125  4  0  0  0  0
124125  4  0  0  0  0
124126  4  0  0  0  0
126127  4  0  0  0  0
127128  1  0  0  0  0
128129  2  0  0  0  0
129130  1  0  0  0  0
127131  4  0  0  0  0
130131  4  0  0  0  0
 79132  1  0  0  0  0
130132  4  0  0  0  0
132133  4  0  0  0  0
133134  4  0  0  0  0
134135  2  0  0  0  0
135136  4  0  0  0  0
133137  4  0  0  0  0
136137  4  0  0  0  0
136138  4  0  0  0  0
117139  1  0  0  0  0
138139  4  0  0  0  0
119140  4  0  0  0  0
139140  4  0  0  0  0
117141  1  0  0  0  0
118142  1  0  0  0  0
122143  1  0  0  0  0
123144  1  0  0  0  0
125145  1  0  0  0  0
126146  1  0  0  0  0
128147  1  0  0  0  0
129148  1  0  0  0  0
134149  1  0  0  0  0
135150  1  0  0  0  0
137151  1  0  0  0  0
138152  1  0  0  0  0
M  END
