198

C 34.822521 3.511082 0.789395
C 35.712499 2.570823 0.591199
C 35.050998 1.310748 0.290392
C 35.409436 0.005086 0.001711
C 34.584258 -1.125986 -0.083506
C 35.039823 -2.334710 0.497801
C 34.067129 -3.267257 0.297646
C 33.036035 -2.599556 -0.405341
N 33.372760 -1.318696 -0.622255
C 31.878074 -3.325671 -0.737058
C 30.559973 -2.882975 -0.623523
C 29.247627 -3.485109 -0.720503
C 28.325999 -2.538462 -0.514418
C 29.022885 -1.292631 -0.277687
N 30.343958 -1.572383 -0.357372
C 28.623643 0.009366 -0.009684
C 29.456255 1.146042 0.066225
C 29.022112 2.348032 -0.543915
C 30.017625 3.264420 -0.351960
C 31.031776 2.591177 0.371972
N 30.666579 1.323355 0.610796
C 32.201418 3.298133 0.693471
C 33.516671 2.894609 0.623455
N 33.706293 1.583505 0.327053
H 34.989786 4.539626 1.027984
H 36.782758 2.694160 0.640218
H 36.000344 -2.520413 1.016378
H 34.104011 -4.323866 0.622974
H 32.769475 -0.551286 -1.169775
H 31.966465 -4.361098 -1.115405
H 29.048952 -4.545810 -0.929247
H 27.256590 -2.730396 -0.533651
H 27.548700 0.098635 0.128061
H 28.068458 2.539589 -1.072713
H 30.003204 4.314649 -0.698401
H 31.259904 0.565911 1.182792
H 32.132910 4.355538 1.050187
C 82.530017 -3.492540 0.825765
C 81.640040 -2.554390 0.617815
C 82.301541 -1.297508 0.303937
C 81.943103 0.005086 0.001711
C 82.768281 1.135212 -0.095248
C 82.312716 2.349908 0.473474
C 83.285410 3.280326 0.263644
C 84.316504 2.605359 -0.432370
N 83.979779 1.322316 -0.635970
C 85.474465 3.327991 -0.771611
C 86.792565 2.886498 -0.653484
C 88.104912 3.487592 -0.756712
C 89.026539 2.543136 -0.540807
C 88.329654 1.299832 -0.291149
N 87.008580 1.578741 -0.373736
C 88.728896 0.000688 -0.009638
C 87.896284 -1.135139 0.078071
C 88.330427 -2.343400 -0.519553
C 87.334914 -3.257745 -0.318090
C 86.320763 -2.577020 0.398810
N 86.685960 -1.306786 0.624454
C 85.151121 -3.280599 0.727635
C 83.835868 -2.877823 0.653432
N 83.646245 -1.569869 0.343429
H 82.362753 -4.518551 1.075024
H 80.569781 -2.677212 0.668111
H 81.352194 2.540987 0.990094
H 83.248528 4.340257 0.577980
H 84.583064 0.549261 -1.175490
H 85.386074 4.359433 -1.160691
H 88.303587 4.546068 -0.976462
H 90.095949 2.734860 -0.562032
H 89.803839 -0.087146 0.129026
H 89.284081 -2.540439 -1.046332
H 87.349335 -4.311516 -0.653605
H 86.092635 -0.543443 1.188553
H 85.219629 -4.334242 1.095314
C 37.811049 0.002864 0.000497
C 39.019026 0.010319 0.002192
C 40.437794 0.011016 0.007329
C 41.653311 0.002864 0.000497
C 50.441158 0.002864 0.000497
C 51.649135 0.010319 0.002192
C 53.067903 0.011016 0.007329
C 54.283419 0.002864 0.000497
C 63.071267 0.002864 0.000497
C 64.279243 0.010319 0.002192
C 65.698011 0.011016 0.007329
C 66.913528 0.002864 0.000497
C 75.701375 0.002864 0.000497
C 76.909352 0.010319 0.002192
C 78.328120 0.011016 0.007329
C 79.543636 0.002864 0.000497
C 43.253013 -3.593182 0.000645
C 42.378463 -2.598278 -0.009657
C 43.049927 -1.319495 0.003533
C 42.652896 -0.003909 -0.001246
C 43.464088 1.140414 -0.155372
C 42.985062 2.192931 -0.967437
C 43.972147 3.135683 -0.958906
C 45.019419 2.633889 -0.146103
N 44.680566 1.427521 0.326643
C 46.179796 3.411871 0.008247
C 47.500785 2.953998 -0.021147
C 48.813355 3.582131 -0.082274
C 49.727467 2.627067 -0.084858
C 49.053921 1.340194 -0.025668
N 47.741862 1.628793 0.009121
C 49.456204 -0.003909 -0.001246
C 48.624050 -1.117698 0.181035
C 49.064008 -2.149355 1.044346
C 48.065826 -3.072696 1.048967
C 47.042910 -2.592758 0.195538
N 47.410088 -1.411511 -0.314970
C 45.886001 -3.368166 0.038469
C 44.565226 -2.948687 0.021784
N 44.388835 -1.610484 0.022685
H 43.084493 -4.655349 -0.004757
H 41.290635 -2.784314 -0.026683
H 42.020984 2.268302 -1.501754
H 43.934001 4.106798 -1.491349
H 45.288244 0.790421 1.015272
H 46.124696 4.498133 0.152362
H 49.031782 4.650124 -0.120605
H 50.803782 2.773111 -0.124485
H 50.018018 -2.213767 1.601894
H 48.091245 -4.018013 1.624287
H 46.823011 -0.792054 -1.038620
H 45.946719 -4.479905 -0.075660
C 55.883121 -3.593182 0.000645
C 55.008571 -2.598278 -0.009657
C 55.680035 -1.319495 0.003533
C 55.283004 -0.003909 -0.001246
C 56.094196 1.140414 -0.155372
C 55.615171 2.192931 -0.967437
C 56.602256 3.135683 -0.958906
C 57.649527 2.633889 -0.146103
N 57.310674 1.427521 0.326643
C 58.809905 3.411871 0.008247
C 60.130894 2.953998 -0.021147
C 61.443463 3.582131 -0.082274
C 62.357576 2.627067 -0.084858
C 61.684029 1.340194 -0.025668
N 60.371971 1.628793 0.009121
C 62.086313 -0.003909 -0.001246
C 61.254159 -1.117698 0.181035
C 61.694117 -2.149355 1.044346
C 60.695935 -3.072696 1.048967
C 59.673019 -2.592758 0.195538
N 60.040196 -1.411511 -0.314970
C 58.516110 -3.368166 0.038469
C 57.195335 -2.948687 0.021784
N 57.018944 -1.610484 0.022685
H 55.714602 -4.655349 -0.004757
H 53.920743 -2.784314 -0.026683
H 54.651093 2.268302 -1.501754
H 56.564109 4.106798 -1.491349
H 57.918353 0.790421 1.015272
H 58.754805 4.498133 0.152362
H 61.661890 4.650124 -0.120605
H 63.433891 2.773111 -0.124485
H 62.648126 -2.213767 1.601894
H 60.721353 -4.018013 1.624287
H 59.453120 -0.792054 -1.038620
H 58.576828 -4.479905 -0.075660
C 68.513230 -3.593182 0.000645
C 67.638680 -2.598278 -0.009657
C 68.310144 -1.319495 0.003533
C 67.913113 -0.003909 -0.001246
C 68.724305 1.140414 -0.155372
C 68.245279 2.192931 -0.967437
C 69.232364 3.135683 -0.958906
C 70.279636 2.633889 -0.146103
N 69.940783 1.427521 0.326643
C 71.440013 3.411871 0.008247
C 72.761002 2.953998 -0.021147
C 74.073572 3.582131 -0.082274
C 74.987684 2.627067 -0.084858
C 74.314138 1.340194 -0.025668
N 73.002079 1.628793 0.009121
C 74.716421 -0.003909 -0.001246
C 73.884267 -1.117698 0.181035
C 74.324225 -2.149355 1.044346
C 73.326043 -3.072696 1.048967
C 72.303128 -2.592758 0.195538
N 72.670305 -1.411511 -0.314970
C 71.146218 -3.368166 0.038469
C 69.825443 -2.948687 0.021784
N 69.649052 -1.610484 0.022685
H 68.344710 -4.655349 -0.004757
H 66.550852 -2.784314 -0.026683
H 67.281202 2.268302 -1.501754
H 69.194218 4.106798 -1.491349
H 70.548461 0.790421 1.015272
H 71.384913 4.498133 0.152362
H 74.291999 4.650124 -0.120605
H 76.063999 2.773111 -0.124485
H 75.278235 -2.213767 1.601894
H 73.351462 -4.018013 1.624287
H 72.083228 -0.792054 -1.038620
H 71.206936 -4.479905 -0.075660
