
  xtb     11212119193D
 xtb: 6.4.1 (bd6e46d)
271326  0     0  0            999 V2000
   43.3879    0.0080   -0.0144 Zn  0  0  0  0  0  0  0  0  0  0  0  0
   45.9212   -3.4264    0.0158 C   0  0  0  0  0  0  0  0  0  0  0  0
   46.8747   -2.4637    0.0149 C   0  0  0  0  0  0  0  0  0  0  0  0
   46.1861   -1.2046    0.0048 C   0  0  0  0  0  0  0  0  0  0  0  0
   46.8256    0.0461   -0.0014 C   0  0  0  0  0  0  0  0  0  0  0  0
   46.1589    1.2824   -0.0100 C   0  0  0  0  0  0  0  0  0  0  0  0
   46.8195    2.5565   -0.0125 C   0  0  0  0  0  0  0  0  0  0  0  0
   45.8449    3.4978   -0.0179 C   0  0  0  0  0  0  0  0  0  0  0  0
   44.5923    2.7966   -0.0192 C   0  0  0  0  0  0  0  0  0  0  0  0
   44.8152    1.4521   -0.0143 N   0  0  0  0  0  0  0  0  0  0  0  0
   43.3510    3.4105   -0.0252 C   0  0  0  0  0  0  0  0  0  0  0  0
   42.1239    2.7683   -0.0288 C   0  0  0  0  0  0  0  0  0  0  0  0
   40.8506    3.4363   -0.0371 C   0  0  0  0  0  0  0  0  0  0  0  0
   39.9036    2.4694   -0.0401 C   0  0  0  0  0  0  0  0  0  0  0  0
   40.5977    1.2098   -0.0333 C   0  0  0  0  0  0  0  0  0  0  0  0
   41.9396    1.4221   -0.0263 N   0  0  0  0  0  0  0  0  0  0  0  0
   39.9791   -0.0298   -0.0340 C   0  0  0  0  0  0  0  0  0  0  0  0
   40.6249   -1.2554   -0.0264 C   0  0  0  0  0  0  0  0  0  0  0  0
   39.9589   -2.5301   -0.0265 C   0  0  0  0  0  0  0  0  0  0  0  0
   40.9270   -3.4758   -0.0163 C   0  0  0  0  0  0  0  0  0  0  0  0
   42.1852   -2.7797   -0.0103 C   0  0  0  0  0  0  0  0  0  0  0  0
   41.9712   -1.4379   -0.0169 N   0  0  0  0  0  0  0  0  0  0  0  0
   43.4261   -3.3946    0.0009 C   0  0  0  0  0  0  0  0  0  0  0  0
   44.6535   -2.7531    0.0057 C   0  0  0  0  0  0  0  0  0  0  0  0
   44.8466   -1.4040   -0.0002 N   0  0  0  0  0  0  0  0  0  0  0  0
   46.0493   -4.4917    0.0221 H   0  0  0  0  0  0  0  0  0  0  0  0
   47.9415   -2.5773    0.0202 H   0  0  0  0  0  0  0  0  0  0  0  0
   47.8836    2.6936   -0.0097 H   0  0  0  0  0  0  0  0  0  0  0  0
   45.9493    4.5656   -0.0206 H   0  0  0  0  0  0  0  0  0  0  0  0
   43.3399    4.4917   -0.0281 H   0  0  0  0  0  0  0  0  0  0  0  0
   40.7184    4.5013   -0.0404 H   0  0  0  0  0  0  0  0  0  0  0  0
   38.8361    2.5793   -0.0464 H   0  0  0  0  0  0  0  0  0  0  0  0
   38.8981   -0.0418   -0.0406 H   0  0  0  0  0  0  0  0  0  0  0  0
   38.8941   -2.6637   -0.0332 H   0  0  0  0  0  0  0  0  0  0  0  0
   40.8185   -4.5435   -0.0132 H   0  0  0  0  0  0  0  0  0  0  0  0
   43.4391   -4.4757    0.0058 H   0  0  0  0  0  0  0  0  0  0  0  0
  124.1418    0.0421   -0.0123 Zn  0  0  0  0  0  0  0  0  0  0  0  0
  121.6179    3.4280    0.6041 C   0  0  0  0  0  0  0  0  0  0  0  0
  120.6617    2.4832    0.4341 C   0  0  0  0  0  0  0  0  0  0  0  0
  121.3468    1.2423    0.2093 C   0  0  0  0  0  0  0  0  0  0  0  0
  120.7041    0.0121   -0.0057 C   0  0  0  0  0  0  0  0  0  0  0  0
  121.3672   -1.2071   -0.2215 C   0  0  0  0  0  0  0  0  0  0  0  0
  120.7031   -2.4601   -0.4420 C   0  0  0  0  0  0  0  0  0  0  0  0
  121.6750   -3.3882   -0.6145 C   0  0  0  0  0  0  0  0  0  0  0  0
  122.9296   -2.7002   -0.4989 C   0  0  0  0  0  0  0  0  0  0  0  0
  122.7105   -1.3766   -0.2593 N   0  0  0  0  0  0  0  0  0  0  0  0
  124.1692   -3.3061   -0.6183 C   0  0  0  0  0  0  0  0  0  0  0  0
  125.3980   -2.6759   -0.5137 C   0  0  0  0  0  0  0  0  0  0  0  0
  126.6694   -3.3349   -0.6432 C   0  0  0  0  0  0  0  0  0  0  0  0
  127.6191   -2.3853   -0.4760 C   0  0  0  0  0  0  0  0  0  0  0  0
  126.9286   -1.1452   -0.2443 C   0  0  0  0  0  0  0  0  0  0  0  0
  125.5861   -1.3518   -0.2735 N   0  0  0  0  0  0  0  0  0  0  0  0
  127.5507    0.0728   -0.0231 C   0  0  0  0  0  0  0  0  0  0  0  0
  126.9083    1.2793    0.2026 C   0  0  0  0  0  0  0  0  0  0  0  0
  127.5779    2.5315    0.4308 C   0  0  0  0  0  0  0  0  0  0  0  0
  126.6124    3.4637    0.6053 C   0  0  0  0  0  0  0  0  0  0  0  0
  125.3522    2.7820    0.4836 C   0  0  0  0  0  0  0  0  0  0  0  0
  125.5625    1.4616    0.2408 N   0  0  0  0  0  0  0  0  0  0  0  0
  124.1130    3.3900    0.5962 C   0  0  0  0  0  0  0  0  0  0  0  0
  122.8838    2.7622    0.4826 C   0  0  0  0  0  0  0  0  0  0  0  0
  122.6870    1.4352    0.2425 N   0  0  0  0  0  0  0  0  0  0  0  0
  121.4928    4.4766    0.7941 H   0  0  0  0  0  0  0  0  0  0  0  0
  119.5952    2.5976    0.4567 H   0  0  0  0  0  0  0  0  0  0  0  0
  119.6386   -2.5931   -0.4603 H   0  0  0  0  0  0  0  0  0  0  0  0
  121.5676   -4.4391   -0.8028 H   0  0  0  0  0  0  0  0  0  0  0  0
  124.1771   -4.3699   -0.8113 H   0  0  0  0  0  0  0  0  0  0  0  0
  126.7986   -4.3827   -0.8359 H   0  0  0  0  0  0  0  0  0  0  0  0
  128.6863   -2.4950   -0.5035 H   0  0  0  0  0  0  0  0  0  0  0  0
  128.6316    0.0825   -0.0268 H   0  0  0  0  0  0  0  0  0  0  0  0
  128.6431    2.6604    0.4513 H   0  0  0  0  0  0  0  0  0  0  0  0
  126.7239    4.5135    0.7981 H   0  0  0  0  0  0  0  0  0  0  0  0
  124.1030    4.4536    0.7902 H   0  0  0  0  0  0  0  0  0  0  0  0
   48.2244    0.0597   -0.0007 C   0  0  0  0  0  0  0  0  0  0  0  0
   49.4428    0.0678   -0.0014 C   0  0  0  0  0  0  0  0  0  0  0  0
   50.7850    0.0741   -0.0002 C   0  0  0  0  0  0  0  0  0  0  0  0
   52.0036    0.0734   -0.0024 C   0  0  0  0  0  0  0  0  0  0  0  0
   61.6822    0.0483   -0.0216 C   0  0  0  0  0  0  0  0  0  0  0  0
   62.9011    0.0479   -0.0220 C   0  0  0  0  0  0  0  0  0  0  0  0
   64.2432    0.0471   -0.0224 C   0  0  0  0  0  0  0  0  0  0  0  0
   65.4620    0.0482   -0.0225 C   0  0  0  0  0  0  0  0  0  0  0  0
   75.1434    0.0467   -0.0216 C   0  0  0  0  0  0  0  0  0  0  0  0
   76.3623    0.0431   -0.0250 C   0  0  0  0  0  0  0  0  0  0  0  0
   77.7045    0.0424   -0.0263 C   0  0  0  0  0  0  0  0  0  0  0  0
   78.9234    0.0390   -0.0284 C   0  0  0  0  0  0  0  0  0  0  0  0
   88.6058    0.0426   -0.0153 C   0  0  0  0  0  0  0  0  0  0  0  0
   89.8247    0.0468   -0.0205 C   0  0  0  0  0  0  0  0  0  0  0  0
   91.1669    0.0452   -0.0188 C   0  0  0  0  0  0  0  0  0  0  0  0
   92.3858    0.0500   -0.0223 C   0  0  0  0  0  0  0  0  0  0  0  0
  102.0673    0.0468   -0.0166 C   0  0  0  0  0  0  0  0  0  0  0  0
  103.2861    0.0435   -0.0163 C   0  0  0  0  0  0  0  0  0  0  0  0
  104.6282    0.0412   -0.0194 C   0  0  0  0  0  0  0  0  0  0  0  0
  105.8471    0.0350   -0.0209 C   0  0  0  0  0  0  0  0  0  0  0  0
  115.5258   -0.0061   -0.0096 C   0  0  0  0  0  0  0  0  0  0  0  0
  116.7443   -0.0067   -0.0060 C   0  0  0  0  0  0  0  0  0  0  0  0
  118.0867   -0.0040   -0.0065 C   0  0  0  0  0  0  0  0  0  0  0  0
  119.3050    0.0018   -0.0051 C   0  0  0  0  0  0  0  0  0  0  0  0
   56.8425    0.0611   -0.0140 Zn  0  0  0  0  0  0  0  0  0  0  0  0
   54.3395   -3.3712    0.3805 C   0  0  0  0  0  0  0  0  0  0  0  0
   53.3768   -2.4232    0.2743 C   0  0  0  0  0  0  0  0  0  0  0  0
   54.0535   -1.1663    0.1306 C   0  0  0  0  0  0  0  0  0  0  0  0
   53.4019    0.0708   -0.0063 C   0  0  0  0  0  0  0  0  0  0  0  0
   54.0596    1.3042   -0.1466 C   0  0  0  0  0  0  0  0  0  0  0  0
   53.3894    2.5648   -0.2879 C   0  0  0  0  0  0  0  0  0  0  0  0
   54.3570    3.5073   -0.3991 C   0  0  0  0  0  0  0  0  0  0  0  0
   55.6140    2.8194   -0.3252 C   0  0  0  0  0  0  0  0  0  0  0  0
   55.4019    1.4819   -0.1715 N   0  0  0  0  0  0  0  0  0  0  0  0
   56.8512    3.4363   -0.4011 C   0  0  0  0  0  0  0  0  0  0  0  0
   58.0850    2.8119   -0.3339 C   0  0  0  0  0  0  0  0  0  0  0  0
   59.3454    3.4925   -0.4165 C   0  0  0  0  0  0  0  0  0  0  0  0
   60.3082    2.5447   -0.3096 C   0  0  0  0  0  0  0  0  0  0  0  0
   59.6319    1.2881   -0.1621 C   0  0  0  0  0  0  0  0  0  0  0  0
   58.2906    1.4732   -0.1799 N   0  0  0  0  0  0  0  0  0  0  0  0
   60.2840    0.0515   -0.0198 C   0  0  0  0  0  0  0  0  0  0  0  0
   59.6257   -1.1815    0.1240 C   0  0  0  0  0  0  0  0  0  0  0  0
   60.2956   -2.4419    0.2685 C   0  0  0  0  0  0  0  0  0  0  0  0
   59.3279   -3.3844    0.3779 C   0  0  0  0  0  0  0  0  0  0  0  0
   58.0710   -2.6969    0.3000 C   0  0  0  0  0  0  0  0  0  0  0  0
   58.2835   -1.3592    0.1461 N   0  0  0  0  0  0  0  0  0  0  0  0
   56.8340   -3.3144    0.3715 C   0  0  0  0  0  0  0  0  0  0  0  0
   55.6000   -2.6904    0.3013 C   0  0  0  0  0  0  0  0  0  0  0  0
   55.3948   -1.3516    0.1492 N   0  0  0  0  0  0  0  0  0  0  0  0
   54.2214   -4.4307    0.5012 H   0  0  0  0  0  0  0  0  0  0  0  0
   52.3111   -2.5455    0.2903 H   0  0  0  0  0  0  0  0  0  0  0  0
   52.3243    2.6931   -0.2991 H   0  0  0  0  0  0  0  0  0  0  0  0
   54.2444    4.5675   -0.5198 H   0  0  0  0  0  0  0  0  0  0  0  0
   56.8540    4.5106   -0.5246 H   0  0  0  0  0  0  0  0  0  0  0  0
   59.4632    4.5518   -0.5395 H   0  0  0  0  0  0  0  0  0  0  0  0
   61.3739    2.6671   -0.3268 H   0  0  0  0  0  0  0  0  0  0  0  0
   61.3606   -2.5702    0.2822 H   0  0  0  0  0  0  0  0  0  0  0  0
   59.4402   -4.4445    0.4998 H   0  0  0  0  0  0  0  0  0  0  0  0
   56.8312   -4.3887    0.4944 H   0  0  0  0  0  0  0  0  0  0  0  0
   70.3025    0.0486   -0.0160 Zn  0  0  0  0  0  0  0  0  0  0  0  0
   67.8079   -3.3892    0.3835 C   0  0  0  0  0  0  0  0  0  0  0  0
   66.8425   -2.4447    0.2714 C   0  0  0  0  0  0  0  0  0  0  0  0
   67.5155   -1.1861    0.1249 C   0  0  0  0  0  0  0  0  0  0  0  0
   66.8603    0.0483   -0.0213 C   0  0  0  0  0  0  0  0  0  0  0  0
   67.5158    1.2827   -0.1657 C   0  0  0  0  0  0  0  0  0  0  0  0
   66.8431    2.5409   -0.3160 C   0  0  0  0  0  0  0  0  0  0  0  0
   67.8087    3.4858   -0.4234 C   0  0  0  0  0  0  0  0  0  0  0  0
   69.0672    2.8018   -0.3390 C   0  0  0  0  0  0  0  0  0  0  0  0
   68.8577    1.4641   -0.1826 N   0  0  0  0  0  0  0  0  0  0  0  0
   70.3029    3.4223   -0.4089 C   0  0  0  0  0  0  0  0  0  0  0  0
   71.5386    2.8019   -0.3370 C   0  0  0  0  0  0  0  0  0  0  0  0
   72.7971    3.4858   -0.4194 C   0  0  0  0  0  0  0  0  0  0  0  0
   73.7625    2.5408   -0.3116 C   0  0  0  0  0  0  0  0  0  0  0  0
   73.0897    1.2825   -0.1625 C   0  0  0  0  0  0  0  0  0  0  0  0
   71.7480    1.4639   -0.1818 N   0  0  0  0  0  0  0  0  0  0  0  0
   73.7450    0.0478   -0.0187 C   0  0  0  0  0  0  0  0  0  0  0  0
   73.0892   -1.1863    0.1275 C   0  0  0  0  0  0  0  0  0  0  0  0
   73.7618   -2.4449    0.2759 C   0  0  0  0  0  0  0  0  0  0  0  0
   72.7961   -3.3891    0.3878 C   0  0  0  0  0  0  0  0  0  0  0  0
   71.5377   -2.7046    0.3073 C   0  0  0  0  0  0  0  0  0  0  0  0
   71.7473   -1.3670    0.1498 N   0  0  0  0  0  0  0  0  0  0  0  0
   70.3021   -3.3249    0.3795 C   0  0  0  0  0  0  0  0  0  0  0  0
   69.0664   -2.7048    0.3052 C   0  0  0  0  0  0  0  0  0  0  0  0
   68.8573   -1.3671    0.1482 N   0  0  0  0  0  0  0  0  0  0  0  0
   67.6928   -4.4488    0.5071 H   0  0  0  0  0  0  0  0  0  0  0  0
   65.7771   -2.5704    0.2845 H   0  0  0  0  0  0  0  0  0  0  0  0
   65.7777    2.6661   -0.3353 H   0  0  0  0  0  0  0  0  0  0  0  0
   67.6939    4.5453   -0.5483 H   0  0  0  0  0  0  0  0  0  0  0  0
   70.3029    4.4964   -0.5331 H   0  0  0  0  0  0  0  0  0  0  0  0
   72.9121    4.5453   -0.5436 H   0  0  0  0  0  0  0  0  0  0  0  0
   74.8280    2.6661   -0.3299 H   0  0  0  0  0  0  0  0  0  0  0  0
   74.8271   -2.5708    0.2902 H   0  0  0  0  0  0  0  0  0  0  0  0
   72.9108   -4.4486    0.5129 H   0  0  0  0  0  0  0  0  0  0  0  0
   70.3021   -4.3988    0.5057 H   0  0  0  0  0  0  0  0  0  0  0  0
   83.7646    0.0394   -0.0212 Zn  0  0  0  0  0  0  0  0  0  0  0  0
   81.2705   -3.3985    0.3780 C   0  0  0  0  0  0  0  0  0  0  0  0
   80.3049   -2.4543    0.2652 C   0  0  0  0  0  0  0  0  0  0  0  0
   80.9774   -1.1956    0.1184 C   0  0  0  0  0  0  0  0  0  0  0  0
   80.3218    0.0386   -0.0283 C   0  0  0  0  0  0  0  0  0  0  0  0
   80.9774    1.2729   -0.1737 C   0  0  0  0  0  0  0  0  0  0  0  0
   80.3048    2.5311   -0.3248 C   0  0  0  0  0  0  0  0  0  0  0  0
   81.2703    3.4757   -0.4349 C   0  0  0  0  0  0  0  0  0  0  0  0
   82.5287    2.7917   -0.3504 C   0  0  0  0  0  0  0  0  0  0  0  0
   82.3193    1.4542   -0.1921 N   0  0  0  0  0  0  0  0  0  0  0  0
   83.7644    3.4123   -0.4200 C   0  0  0  0  0  0  0  0  0  0  0  0
   85.0001    2.7927   -0.3426 C   0  0  0  0  0  0  0  0  0  0  0  0
   86.2585    3.4776   -0.4196 C   0  0  0  0  0  0  0  0  0  0  0  0
   87.2241    2.5335   -0.3060 C   0  0  0  0  0  0  0  0  0  0  0  0
   86.5515    1.2748   -0.1598 C   0  0  0  0  0  0  0  0  0  0  0  0
   85.2097    1.4551   -0.1845 N   0  0  0  0  0  0  0  0  0  0  0  0
   87.2074    0.0407   -0.0138 C   0  0  0  0  0  0  0  0  0  0  0  0
   86.5520   -1.1940    0.1308 C   0  0  0  0  0  0  0  0  0  0  0  0
   87.2246   -2.4523    0.2809 C   0  0  0  0  0  0  0  0  0  0  0  0
   86.2590   -3.3970    0.3903 C   0  0  0  0  0  0  0  0  0  0  0  0
   85.0005   -2.7129    0.3064 C   0  0  0  0  0  0  0  0  0  0  0  0
   85.2101   -1.3752    0.1492 N   0  0  0  0  0  0  0  0  0  0  0  0
   83.7648   -3.3334    0.3763 C   0  0  0  0  0  0  0  0  0  0  0  0
   82.5290   -2.7137    0.3002 C   0  0  0  0  0  0  0  0  0  0  0  0
   82.3194   -1.3761    0.1423 N   0  0  0  0  0  0  0  0  0  0  0  0
   81.1558   -4.4581    0.5022 H   0  0  0  0  0  0  0  0  0  0  0  0
   79.2395   -2.5804    0.2779 H   0  0  0  0  0  0  0  0  0  0  0  0
   79.2394    2.6565   -0.3425 H   0  0  0  0  0  0  0  0  0  0  0  0
   81.1556    4.5349   -0.5614 H   0  0  0  0  0  0  0  0  0  0  0  0
   83.7644    4.4861   -0.5472 H   0  0  0  0  0  0  0  0  0  0  0  0
   86.3733    4.5371   -0.5437 H   0  0  0  0  0  0  0  0  0  0  0  0
   88.2895    2.6597   -0.3176 H   0  0  0  0  0  0  0  0  0  0  0  0
   88.2900   -2.5778    0.2983 H   0  0  0  0  0  0  0  0  0  0  0  0
   86.3738   -4.4564    0.5157 H   0  0  0  0  0  0  0  0  0  0  0  0
   83.7648   -4.4073    0.5026 H   0  0  0  0  0  0  0  0  0  0  0  0
   97.2267    0.0493   -0.0234 Zn  0  0  0  0  0  0  0  0  0  0  0  0
   94.7308   -3.3870    0.3788 C   0  0  0  0  0  0  0  0  0  0  0  0
   93.7658   -2.4420    0.2671 C   0  0  0  0  0  0  0  0  0  0  0  0
   94.4393   -1.1838    0.1197 C   0  0  0  0  0  0  0  0  0  0  0  0
   93.7842    0.0508   -0.0261 C   0  0  0  0  0  0  0  0  0  0  0  0
   94.4403    1.2847   -0.1730 C   0  0  0  0  0  0  0  0  0  0  0  0
   93.7683    2.5433   -0.3239 C   0  0  0  0  0  0  0  0  0  0  0  0
   94.7345    3.4871   -0.4358 C   0  0  0  0  0  0  0  0  0  0  0  0
   95.9926    2.8023   -0.3525 C   0  0  0  0  0  0  0  0  0  0  0  0
   95.7823    1.4650   -0.1933 N   0  0  0  0  0  0  0  0  0  0  0  0
   97.2286    3.4220   -0.4239 C   0  0  0  0  0  0  0  0  0  0  0  0
   98.4640    2.8016   -0.3476 C   0  0  0  0  0  0  0  0  0  0  0  0
   99.7229    3.4854   -0.4262 C   0  0  0  0  0  0  0  0  0  0  0  0
  100.6879    2.5406   -0.3123 C   0  0  0  0  0  0  0  0  0  0  0  0
  100.0144    1.2825   -0.1647 C   0  0  0  0  0  0  0  0  0  0  0  0
   98.6726    1.4640   -0.1886 N   0  0  0  0  0  0  0  0  0  0  0  0
  100.6690    0.0479   -0.0178 C   0  0  0  0  0  0  0  0  0  0  0  0
  100.0129   -1.1861    0.1276 C   0  0  0  0  0  0  0  0  0  0  0  0
  100.6850   -2.4446    0.2779 C   0  0  0  0  0  0  0  0  0  0  0  0
   99.7190   -3.3888    0.3878 C   0  0  0  0  0  0  0  0  0  0  0  0
   98.4609   -2.7041    0.3043 C   0  0  0  0  0  0  0  0  0  0  0  0
   98.6710   -1.3666    0.1466 N   0  0  0  0  0  0  0  0  0  0  0  0
   97.2249   -3.3239    0.3750 C   0  0  0  0  0  0  0  0  0  0  0  0
   95.9896   -2.7031    0.2998 C   0  0  0  0  0  0  0  0  0  0  0  0
   95.7810   -1.3654    0.1420 N   0  0  0  0  0  0  0  0  0  0  0  0
   94.6154   -4.4464    0.5032 H   0  0  0  0  0  0  0  0  0  0  0  0
   92.7004   -2.5673    0.2808 H   0  0  0  0  0  0  0  0  0  0  0  0
   92.7031    2.6694   -0.3404 H   0  0  0  0  0  0  0  0  0  0  0  0
   94.6203    4.5464   -0.5627 H   0  0  0  0  0  0  0  0  0  0  0  0
   97.2292    4.4958   -0.5517 H   0  0  0  0  0  0  0  0  0  0  0  0
   99.8385    4.5447   -0.5515 H   0  0  0  0  0  0  0  0  0  0  0  0
  101.7534    2.6658   -0.3251 H   0  0  0  0  0  0  0  0  0  0  0  0
  101.7503   -2.5706    0.2950 H   0  0  0  0  0  0  0  0  0  0  0  0
   99.8333   -4.4482    0.5135 H   0  0  0  0  0  0  0  0  0  0  0  0
   97.2242   -4.3977    0.5016 H   0  0  0  0  0  0  0  0  0  0  0  0
  110.6867    0.0136   -0.0191 Zn  0  0  0  0  0  0  0  0  0  0  0  0
  108.1772   -3.4150    0.3649 C   0  0  0  0  0  0  0  0  0  0  0  0
  107.2162   -2.4651    0.2606 C   0  0  0  0  0  0  0  0  0  0  0  0
  107.8950   -1.2091    0.1186 C   0  0  0  0  0  0  0  0  0  0  0  0
  107.2453    0.0289   -0.0213 C   0  0  0  0  0  0  0  0  0  0  0  0
  107.9060    1.2610   -0.1621 C   0  0  0  0  0  0  0  0  0  0  0  0
  107.2386    2.5227   -0.3071 C   0  0  0  0  0  0  0  0  0  0  0  0
  108.2081    3.4637   -0.4125 C   0  0  0  0  0  0  0  0  0  0  0  0
  109.4637    2.7741   -0.3310 C   0  0  0  0  0  0  0  0  0  0  0  0
  109.2486    1.4366   -0.1799 N   0  0  0  0  0  0  0  0  0  0  0  0
  110.7019    3.3901   -0.3951 C   0  0  0  0  0  0  0  0  0  0  0  0
  111.9346    2.7643   -0.3190 C   0  0  0  0  0  0  0  0  0  0  0  0
  113.1965    3.4437   -0.3885 C   0  0  0  0  0  0  0  0  0  0  0  0
  114.1573    2.4942   -0.2795 C   0  0  0  0  0  0  0  0  0  0  0  0
  113.4782    1.2376   -0.1442 C   0  0  0  0  0  0  0  0  0  0  0  0
  112.1372    1.4249   -0.1698 N   0  0  0  0  0  0  0  0  0  0  0  0
  114.1272   -0.0012   -0.0123 C   0  0  0  0  0  0  0  0  0  0  0  0
  113.4672   -1.2346    0.1159 C   0  0  0  0  0  0  0  0  0  0  0  0
  114.1350   -2.4971    0.2521 C   0  0  0  0  0  0  0  0  0  0  0  0
  113.1656   -3.4385    0.3552 C   0  0  0  0  0  0  0  0  0  0  0  0
  111.9099   -2.7482    0.2817 C   0  0  0  0  0  0  0  0  0  0  0  0
  112.1246   -1.4103    0.1357 N   0  0  0  0  0  0  0  0  0  0  0  0
  110.6715   -3.3633    0.3525 C   0  0  0  0  0  0  0  0  0  0  0  0
  109.4390   -2.7364    0.2866 C   0  0  0  0  0  0  0  0  0  0  0  0
  109.2359   -1.3967    0.1376 N   0  0  0  0  0  0  0  0  0  0  0  0
  108.0574   -4.4746    0.4837 H   0  0  0  0  0  0  0  0  0  0  0  0
  106.1503   -2.5857    0.2760 H   0  0  0  0  0  0  0  0  0  0  0  0
  106.1738    2.6527   -0.3241 H   0  0  0  0  0  0  0  0  0  0  0  0
  108.0979    4.5241   -0.5336 H   0  0  0  0  0  0  0  0  0  0  0  0
  110.7068    4.4646   -0.5158 H   0  0  0  0  0  0  0  0  0  0  0  0
  113.3166    4.5035   -0.5053 H   0  0  0  0  0  0  0  0  0  0  0  0
  115.2232    2.6151   -0.2892 H   0  0  0  0  0  0  0  0  0  0  0  0
  115.1999   -2.6271    0.2661 H   0  0  0  0  0  0  0  0  0  0  0  0
  113.2762   -4.4995    0.4706 H   0  0  0  0  0  0  0  0  0  0  0  0
  110.6667   -4.4381    0.4712 H   0  0  0  0  0  0  0  0  0  0  0  0
  2  3  2  0  0  0  0
  3  4  1  0  0  0  0
  4  5  4  0  0  0  0
  5  6  4  0  0  0  0
  6  7  1  0  0  0  0
  7  8  2  0  0  0  0
  8  9  1  0  0  0  0
  1 10  1  0  0  0  0
  6 10  4  0  0  0  0
  9 10  4  0  0  0  0
  9 11  4  0  0  0  0
 11 12  4  0  0  0  0
 12 13  1  0  0  0  0
 13 14  2  0  0  0  0
 14 15  1  0  0  0  0
  1 16  1  0  0  0  0
 12 16  4  0  0  0  0
 15 16  4  0  0  0  0
 15 17  4  0  0  0  0
 17 18  4  0  0  0  0
 18 19  1  0  0  0  0
 19 20  2  0  0  0  0
 20 21  1  0  0  0  0
  1 22  1  0  0  0  0
 18 22  4  0  0  0  0
 21 22  4  0  0  0  0
 21 23  4  0  0  0  0
  2 24  1  0  0  0  0
 23 24  4  0  0  0  0
  1 25  1  0  0  0  0
  4 25  4  0  0  0  0
 24 25  4  0  0  0  0
  2 26  1  0  0  0  0
  3 27  1  0  0  0  0
  7 28  1  0  0  0  0
  8 29  1  0  0  0  0
 11 30  1  0  0  0  0
 13 31  1  0  0  0  0
 14 32  1  0  0  0  0
 17 33  1  0  0  0  0
 19 34  1  0  0  0  0
 20 35  1  0  0  0  0
 23 36  1  0  0  0  0
 38 39  2  0  0  0  0
 39 40  1  0  0  0  0
 40 41  4  0  0  0  0
 41 42  4  0  0  0  0
 42 43  1  0  0  0  0
 43 44  2  0  0  0  0
 44 45  1  0  0  0  0
 37 46  1  0  0  0  0
 42 46  4  0  0  0  0
 45 46  4  0  0  0  0
 45 47  4  0  0  0  0
 47 48  4  0  0  0  0
 48 49  1  0  0  0  0
 49 50  2  0  0  0  0
 50 51  1  0  0  0  0
 37 52  1  0  0  0  0
 48 52  4  0  0  0  0
 51 52  4  0  0  0  0
 51 53  4  0  0  0  0
 53 54  4  0  0  0  0
 54 55  1  0  0  0  0
 55 56  2  0  0  0  0
 56 57  1  0  0  0  0
 37 58  1  0  0  0  0
 54 58  4  0  0  0  0
 57 58  4  0  0  0  0
 57 59  4  0  0  0  0
 38 60  1  0  0  0  0
 59 60  4  0  0  0  0
 37 61  1  0  0  0  0
 40 61  4  0  0  0  0
 60 61  4  0  0  0  0
 38 62  1  0  0  0  0
 39 63  1  0  0  0  0
 43 64  1  0  0  0  0
 44 65  1  0  0  0  0
 47 66  1  0  0  0  0
 49 67  1  0  0  0  0
 50 68  1  0  0  0  0
 53 69  1  0  0  0  0
 55 70  1  0  0  0  0
 56 71  1  0  0  0  0
 59 72  1  0  0  0  0
  5 73  1  0  0  0  0
 73 74  3  0  0  0  0
 74 75  4  0  0  0  0
 75 76  3  0  0  0  0
 77 78  3  0  0  0  0
 78 79  4  0  0  0  0
 79 80  3  0  0  0  0
 81 82  3  0  0  0  0
 82 83  4  0  0  0  0
 83 84  3  0  0  0  0
 85 86  3  0  0  0  0
 86 87  4  0  0  0  0
 87 88  3  0  0  0  0
 89 90  3  0  0  0  0
 90 91  4  0  0  0  0
 91 92  3  0  0  0  0
 93 94  3  0  0  0  0
 94 95  4  0  0  0  0
 41 96  1  0  0  0  0
 95 96  3  0  0  0  0
 98 99  2  0  0  0  0
 99100  1  0  0  0  0
 76101  1  0  0  0  0
100101  4  0  0  0  0
101102  4  0  0  0  0
102103  1  0  0  0  0
103104  2  0  0  0  0
104105  1  0  0  0  0
 97106  1  0  0  0  0
102106  4  0  0  0  0
105106  4  0  0  0  0
105107  4  0  0  0  0
107108  4  0  0  0  0
108109  1  0  0  0  0
109110  2  0  0  0  0
110111  1  0  0  0  0
 97112  1  0  0  0  0
108112  4  0  0  0  0
111112  4  0  0  0  0
 77113  1  0  0  0  0
111113  4  0  0  0  0
113114  4  0  0  0  0
114115  1  0  0  0  0
115116  2  0  0  0  0
116117  1  0  0  0  0
 97118  1  0  0  0  0
114118  4  0  0  0  0
117118  4  0  0  0  0
117119  4  0  0  0  0
 98120  1  0  0  0  0
119120  4  0  0  0  0
 97121  1  0  0  0  0
100121  4  0  0  0  0
120121  4  0  0  0  0
 98122  1  0  0  0  0
 99123  1  0  0  0  0
103124  1  0  0  0  0
104125  1  0  0  0  0
107126  1  0  0  0  0
109127  1  0  0  0  0
110128  1  0  0  0  0
115129  1  0  0  0  0
116130  1  0  0  0  0
119131  1  0  0  0  0
133134  2  0  0  0  0
134135  1  0  0  0  0
 80136  1  0  0  0  0
135136  4  0  0  0  0
136137  4  0  0  0  0
137138  1  0  0  0  0
138139  2  0  0  0  0
139140  1  0  0  0  0
132141  1  0  0  0  0
137141  4  0  0  0  0
140141  4  0  0  0  0
140142  4  0  0  0  0
142143  4  0  0  0  0
143144  1  0  0  0  0
144145  2  0  0  0  0
145146  1  0  0  0  0
132147  1  0  0  0  0
143147  4  0  0  0  0
146147  4  0  0  0  0
 81148  1  0  0  0  0
146148  4  0  0  0  0
148149  4  0  0  0  0
149150  1  0  0  0  0
150151  2  0  0  0  0
151152  1  0  0  0  0
132153  1  0  0  0  0
149153  4  0  0  0  0
152153  4  0  0  0  0
152154  4  0  0  0  0
133155  1  0  0  0  0
154155  4  0  0  0  0
132156  1  0  0  0  0
135156  4  0  0  0  0
155156  4  0  0  0  0
133157  1  0  0  0  0
134158  1  0  0  0  0
138159  1  0  0  0  0
139160  1  0  0  0  0
142161  1  0  0  0  0
144162  1  0  0  0  0
145163  1  0  0  0  0
150164  1  0  0  0  0
151165  1  0  0  0  0
154166  1  0  0  0  0
168169  2  0  0  0  0
169170  1  0  0  0  0
 84171  1  0  0  0  0
170171  4  0  0  0  0
171172  4  0  0  0  0
172173  1  0  0  0  0
173174  2  0  0  0  0
174175  1  0  0  0  0
167176  1  0  0  0  0
172176  4  0  0  0  0
175176  4  0  0  0  0
175177  4  0  0  0  0
177178  4  0  0  0  0
178179  1  0  0  0  0
179180  2  0  0  0  0
180181  1  0  0  0  0
167182  1  0  0  0  0
178182  4  0  0  0  0
181182  4  0  0  0  0
 85183  1  0  0  0  0
181183  4  0  0  0  0
183184  4  0  0  0  0
184185  1  0  0  0  0
185186  2  0  0  0  0
186187  1  0  0  0  0
167188  1  0  0  0  0
184188  4  0  0  0  0
187188  4  0  0  0  0
187189  4  0  0  0  0
168190  1  0  0  0  0
189190  4  0  0  0  0
167191  1  0  0  0  0
170191  4  0  0  0  0
190191  4  0  0  0  0
168192  1  0  0  0  0
169193  1  0  0  0  0
173194  1  0  0  0  0
174195  1  0  0  0  0
177196  1  0  0  0  0
179197  1  0  0  0  0
180198  1  0  0  0  0
185199  1  0  0  0  0
186200  1  0  0  0  0
189201  1  0  0  0  0
203204  2  0  0  0  0
204205  1  0  0  0  0
 88206  1  0  0  0  0
205206  4  0  0  0  0
206207  4  0  0  0  0
207208  1  0  0  0  0
208209  2  0  0  0  0
209210  1  0  0  0  0
202211  1  0  0  0  0
207211  4  0  0  0  0
210211  4  0  0  0  0
210212  4  0  0  0  0
212213  4  0  0  0  0
213214  1  0  0  0  0
214215  2  0  0  0  0
215216  1  0  0  0  0
202217  1  0  0  0  0
213217  4  0  0  0  0
216217  4  0  0  0  0
 89218  1  0  0  0  0
216218  4  0  0  0  0
218219  4  0  0  0  0
219220  1  0  0  0  0
220221  2  0  0  0  0
221222  1  0  0  0  0
202223  1  0  0  0  0
219223  4  0  0  0  0
222223  4  0  0  0  0
222224  4  0  0  0  0
203225  1  0  0  0  0
224225  4  0  0  0  0
202226  1  0  0  0  0
205226  4  0  0  0  0
225226  4  0  0  0  0
203227  1  0  0  0  0
204228  1  0  0  0  0
208229  1  0  0  0  0
209230  1  0  0  0  0
212231  1  0  0  0  0
214232  1  0  0  0  0
215233  1  0  0  0  0
220234  1  0  0  0  0
221235  1  0  0  0  0
224236  1  0  0  0  0
238239  2  0  0  0  0
239240  1  0  0  0  0
 92241  1  0  0  0  0
240241  4  0  0  0  0
241242  4  0  0  0  0
242243  1  0  0  0  0
243244  2  0  0  0  0
244245  1  0  0  0  0
237246  1  0  0  0  0
242246  4  0  0  0  0
245246  4  0  0  0  0
245247  4  0  0  0  0
247248  4  0  0  0  0
248249  1  0  0  0  0
249250  2  0  0  0  0
250251  1  0  0  0  0
237252  1  0  0  0  0
248252  4  0  0  0  0
251252  4  0  0  0  0
 93253  1  0  0  0  0
251253  4  0  0  0  0
253254  4  0  0  0  0
254255  1  0  0  0  0
255256  2  0  0  0  0
256257  1  0  0  0  0
237258  1  0  0  0  0
254258  4  0  0  0  0
257258  4  0  0  0  0
257259  4  0  0  0  0
238260  1  0  0  0  0
259260  4  0  0  0  0
237261  1  0  0  0  0
240261  4  0  0  0  0
260261  4  0  0  0  0
238262  1  0  0  0  0
239263  1  0  0  0  0
243264  1  0  0  0  0
244265  1  0  0  0  0
247266  1  0  0  0  0
249267  1  0  0  0  0
250268  1  0  0  0  0
255269  1  0  0  0  0
256270  1  0  0  0  0
259271  1  0  0  0  0
M  END
