
  xtb     11192115263D
 xtb: 6.4.1 (bd6e46d)
122136  0     0  0            999 V2000
   15.7709    3.4054    0.3167 C   0  0  0  0  0  0  0  0  0  0  0  0
   16.7284    2.4587    0.2686 C   0  0  0  0  0  0  0  0  0  0  0  0
   16.0304    1.1922    0.1373 C   0  0  0  0  0  0  0  0  0  0  0  0
   16.6935   -0.0492    0.0576 C   0  0  0  0  0  0  0  0  0  0  0  0
   16.0422   -1.2891   -0.0520 C   0  0  0  0  0  0  0  0  0  0  0  0
   16.6435   -2.5742   -0.1210 C   0  0  0  0  0  0  0  0  0  0  0  0
   15.6382   -3.4923   -0.2234 C   0  0  0  0  0  0  0  0  0  0  0  0
   14.4017   -2.7873   -0.2211 C   0  0  0  0  0  0  0  0  0  0  0  0
   14.6984   -1.4624   -0.1133 N   0  0  0  0  0  0  0  0  0  0  0  0
   13.1343   -3.3426   -0.3184 C   0  0  0  0  0  0  0  0  0  0  0  0
   11.9183   -2.6732   -0.3268 C   0  0  0  0  0  0  0  0  0  0  0  0
   10.6422   -3.3640   -0.4455 C   0  0  0  0  0  0  0  0  0  0  0  0
    9.6940   -2.4094   -0.4188 C   0  0  0  0  0  0  0  0  0  0  0  0
   10.3980   -1.1436   -0.2829 C   0  0  0  0  0  0  0  0  0  0  0  0
   11.7325   -1.3405   -0.2320 N   0  0  0  0  0  0  0  0  0  0  0  0
    9.7527    0.0848   -0.2163 C   0  0  0  0  0  0  0  0  0  0  0  0
   10.3785    1.3151   -0.0874 C   0  0  0  0  0  0  0  0  0  0  0  0
    9.7756    2.6034   -0.0143 C   0  0  0  0  0  0  0  0  0  0  0  0
   10.7766    3.5212    0.1076 C   0  0  0  0  0  0  0  0  0  0  0  0
   12.0166    2.8180    0.1117 C   0  0  0  0  0  0  0  0  0  0  0  0
   11.7239    1.4964   -0.0076 N   0  0  0  0  0  0  0  0  0  0  0  0
   13.2840    3.3721    0.2147 C   0  0  0  0  0  0  0  0  0  0  0  0
   14.5010    2.7070    0.2108 C   0  0  0  0  0  0  0  0  0  0  0  0
   14.6995    1.3709    0.1068 N   0  0  0  0  0  0  0  0  0  0  0  0
   15.8771    4.4690    0.4116 H   0  0  0  0  0  0  0  0  0  0  0  0
   17.7946    2.5685    0.3159 H   0  0  0  0  0  0  0  0  0  0  0  0
   17.7002   -2.7567   -0.0940 H   0  0  0  0  0  0  0  0  0  0  0  0
   15.7336   -4.5582   -0.2950 H   0  0  0  0  0  0  0  0  0  0  0  0
   14.0282   -0.7026   -0.0851 H   0  0  0  0  0  0  0  0  0  0  0  0
   13.0921   -4.4199   -0.4009 H   0  0  0  0  0  0  0  0  0  0  0  0
   10.5302   -4.4276   -0.5358 H   0  0  0  0  0  0  0  0  0  0  0  0
    8.6274   -2.5111   -0.4815 H   0  0  0  0  0  0  0  0  0  0  0  0
    8.6736    0.0815   -0.2691 H   0  0  0  0  0  0  0  0  0  0  0  0
    8.7195    2.7879   -0.0515 H   0  0  0  0  0  0  0  0  0  0  0  0
   10.6798    4.5868    0.1869 H   0  0  0  0  0  0  0  0  0  0  0  0
   12.3914    0.7351   -0.0358 H   0  0  0  0  0  0  0  0  0  0  0  0
   13.3274    4.4488    0.3048 H   0  0  0  0  0  0  0  0  0  0  0  0
   42.9035   -3.3981    0.4165 C   0  0  0  0  0  0  0  0  0  0  0  0
   41.9457   -2.4522    0.3614 C   0  0  0  0  0  0  0  0  0  0  0  0
   42.6428   -1.1874    0.2117 C   0  0  0  0  0  0  0  0  0  0  0  0
   41.9792    0.0529    0.1198 C   0  0  0  0  0  0  0  0  0  0  0  0
   42.6301    1.2914   -0.0080 C   0  0  0  0  0  0  0  0  0  0  0  0
   42.0285    2.5758   -0.0864 C   0  0  0  0  0  0  0  0  0  0  0  0
   43.0333    3.4928   -0.2012 C   0  0  0  0  0  0  0  0  0  0  0  0
   44.2698    2.7879   -0.1978 C   0  0  0  0  0  0  0  0  0  0  0  0
   43.9735    1.4640   -0.0769 N   0  0  0  0  0  0  0  0  0  0  0  0
   45.5367    3.3422   -0.3059 C   0  0  0  0  0  0  0  0  0  0  0  0
   46.7526    2.6727   -0.3164 C   0  0  0  0  0  0  0  0  0  0  0  0
   48.0280    3.3622   -0.4496 C   0  0  0  0  0  0  0  0  0  0  0  0
   48.9760    2.4073   -0.4238 C   0  0  0  0  0  0  0  0  0  0  0  0
   48.2726    1.1429   -0.2729 C   0  0  0  0  0  0  0  0  0  0  0  0
   46.9387    1.3406   -0.2129 N   0  0  0  0  0  0  0  0  0  0  0  0
   48.9180   -0.0852   -0.2005 C   0  0  0  0  0  0  0  0  0  0  0  0
   48.2930   -1.3138   -0.0519 C   0  0  0  0  0  0  0  0  0  0  0  0
   48.8963   -2.6012    0.0329 C   0  0  0  0  0  0  0  0  0  0  0  0
   47.8964   -3.5170    0.1764 C   0  0  0  0  0  0  0  0  0  0  0  0
   46.6566   -2.8135    0.1816 C   0  0  0  0  0  0  0  0  0  0  0  0
   46.9484   -1.4936    0.0420 N   0  0  0  0  0  0  0  0  0  0  0  0
   45.3900   -3.3659    0.3015 C   0  0  0  0  0  0  0  0  0  0  0  0
   44.1729   -2.7010    0.2961 C   0  0  0  0  0  0  0  0  0  0  0  0
   43.9735   -1.3663    0.1762 N   0  0  0  0  0  0  0  0  0  0  0  0
   42.7981   -4.4605    0.5247 H   0  0  0  0  0  0  0  0  0  0  0  0
   40.8797   -2.5616    0.4147 H   0  0  0  0  0  0  0  0  0  0  0  0
   40.9719    2.7586   -0.0566 H   0  0  0  0  0  0  0  0  0  0  0  0
   42.9377    4.5581   -0.2816 H   0  0  0  0  0  0  0  0  0  0  0  0
   44.6440    0.7046   -0.0442 H   0  0  0  0  0  0  0  0  0  0  0  0
   45.5784    4.4189   -0.3970 H   0  0  0  0  0  0  0  0  0  0  0  0
   48.1396    4.4251   -0.5480 H   0  0  0  0  0  0  0  0  0  0  0  0
   50.0420    2.5080   -0.4956 H   0  0  0  0  0  0  0  0  0  0  0  0
   49.9966   -0.0830   -0.2632 H   0  0  0  0  0  0  0  0  0  0  0  0
   49.9520   -2.7862   -0.0112 H   0  0  0  0  0  0  0  0  0  0  0  0
   47.9937   -4.5814    0.2697 H   0  0  0  0  0  0  0  0  0  0  0  0
   46.2805   -0.7327    0.0098 H   0  0  0  0  0  0  0  0  0  0  0  0
   45.3472   -4.4414    0.4064 H   0  0  0  0  0  0  0  0  0  0  0  0
   18.0890   -0.0518    0.0818 C   0  0  0  0  0  0  0  0  0  0  0  0
   19.3095   -0.0426    0.0882 C   0  0  0  0  0  0  0  0  0  0  0  0
   20.6449   -0.0306    0.0872 C   0  0  0  0  0  0  0  0  0  0  0  0
   21.8697   -0.0137    0.0748 C   0  0  0  0  0  0  0  0  0  0  0  0
   23.2048    0.0015    0.0621 C   0  0  0  0  0  0  0  0  0  0  0  0
   24.4253    0.0170    0.0469 C   0  0  0  0  0  0  0  0  0  0  0  0
   34.2476   -0.0030    0.1462 C   0  0  0  0  0  0  0  0  0  0  0  0
   35.4681    0.0124    0.1617 C   0  0  0  0  0  0  0  0  0  0  0  0
   36.8032    0.0270    0.1718 C   0  0  0  0  0  0  0  0  0  0  0  0
   38.0281    0.0413    0.1745 C   0  0  0  0  0  0  0  0  0  0  0  0
   39.3634    0.0507    0.1660 C   0  0  0  0  0  0  0  0  0  0  0  0
   40.5839    0.0567    0.1523 C   0  0  0  0  0  0  0  0  0  0  0  0
   26.8030   -3.3930    0.4769 C   0  0  0  0  0  0  0  0  0  0  0  0
   25.8270   -2.4718    0.3562 C   0  0  0  0  0  0  0  0  0  0  0  0
   26.5012   -1.1964    0.1988 C   0  0  0  0  0  0  0  0  0  0  0  0
   25.8196    0.0274    0.0389 C   0  0  0  0  0  0  0  0  0  0  0  0
   26.4673    1.2633   -0.1301 C   0  0  0  0  0  0  0  0  0  0  0  0
   25.8714    2.5376   -0.3179 C   0  0  0  0  0  0  0  0  0  0  0  0
   26.8835    3.4462   -0.4444 C   0  0  0  0  0  0  0  0  0  0  0  0
   28.1168    2.7455   -0.3341 C   0  0  0  0  0  0  0  0  0  0  0  0
   27.8129    1.4316   -0.1465 N   0  0  0  0  0  0  0  0  0  0  0  0
   29.3853    3.3057   -0.4001 C   0  0  0  0  0  0  0  0  0  0  0  0
   30.6129    2.6725   -0.2905 C   0  0  0  0  0  0  0  0  0  0  0  0
   31.8704    3.3967   -0.3691 C   0  0  0  0  0  0  0  0  0  0  0  0
   32.8461    2.4793   -0.2207 C   0  0  0  0  0  0  0  0  0  0  0  0
   32.1721    1.2049   -0.0555 C   0  0  0  0  0  0  0  0  0  0  0  0
   30.8375    1.3497   -0.1006 N   0  0  0  0  0  0  0  0  0  0  0  0
   32.8535   -0.0163    0.1238 C   0  0  0  0  0  0  0  0  0  0  0  0
   32.2058   -1.2544    0.2766 C   0  0  0  0  0  0  0  0  0  0  0  0
   32.8016   -2.5299    0.4569 C   0  0  0  0  0  0  0  0  0  0  0  0
   31.7898   -3.4420    0.5566 C   0  0  0  0  0  0  0  0  0  0  0  0
   30.5566   -2.7419    0.4402 C   0  0  0  0  0  0  0  0  0  0  0  0
   30.8604   -1.4253    0.2729 N   0  0  0  0  0  0  0  0  0  0  0  0
   29.2883   -3.3042    0.4915 C   0  0  0  0  0  0  0  0  0  0  0  0
   28.0606   -2.6693    0.3950 C   0  0  0  0  0  0  0  0  0  0  0  0
   27.8360   -1.3439    0.2253 N   0  0  0  0  0  0  0  0  0  0  0  0
   26.7168   -4.4543    0.6091 H   0  0  0  0  0  0  0  0  0  0  0  0
   24.7625   -2.6044    0.3662 H   0  0  0  0  0  0  0  0  0  0  0  0
   24.8150    2.7204   -0.3514 H   0  0  0  0  0  0  0  0  0  0  0  0
   26.7937    4.5037   -0.5997 H   0  0  0  0  0  0  0  0  0  0  0  0
   28.4670    0.6650   -0.0330 H   0  0  0  0  0  0  0  0  0  0  0  0
   29.4164    4.3760   -0.5537 H   0  0  0  0  0  0  0  0  0  0  0  0
   31.9566    4.4561   -0.5161 H   0  0  0  0  0  0  0  0  0  0  0  0
   33.9105    2.6136   -0.2188 H   0  0  0  0  0  0  0  0  0  0  0  0
   33.8578   -2.7115    0.5022 H   0  0  0  0  0  0  0  0  0  0  0  0
   31.8797   -4.5015    0.6985 H   0  0  0  0  0  0  0  0  0  0  0  0
   30.2068   -0.6583    0.1581 H   0  0  0  0  0  0  0  0  0  0  0  0
   29.2577   -4.3768    0.6287 H   0  0  0  0  0  0  0  0  0  0  0  0
  1  2  2  0  0  0  0
  2  3  1  0  0  0  0
  3  4  4  0  0  0  0
  4  5  4  0  0  0  0
  5  6  4  0  0  0  0
  6  7  2  0  0  0  0
  7  8  4  0  0  0  0
  5  9  4  0  0  0  0
  8  9  4  0  0  0  0
  8 10  4  0  0  0  0
 10 11  4  0  0  0  0
 11 12  1  0  0  0  0
 12 13  2  0  0  0  0
 13 14  1  0  0  0  0
 11 15  4  0  0  0  0
 14 15  4  0  0  0  0
 14 16  4  0  0  0  0
 16 17  4  0  0  0  0
 17 18  4  0  0  0  0
 18 19  2  0  0  0  0
 19 20  4  0  0  0  0
 17 21  4  0  0  0  0
 20 21  4  0  0  0  0
 20 22  4  0  0  0  0
  1 23  1  0  0  0  0
 22 23  4  0  0  0  0
  3 24  4  0  0  0  0
 23 24  4  0  0  0  0
  1 25  1  0  0  0  0
  2 26  1  0  0  0  0
  6 27  1  0  0  0  0
  7 28  1  0  0  0  0
  9 29  1  0  0  0  0
 10 30  1  0  0  0  0
 12 31  1  0  0  0  0
 13 32  1  0  0  0  0
 16 33  1  0  0  0  0
 18 34  1  0  0  0  0
 19 35  1  0  0  0  0
 21 36  1  0  0  0  0
 22 37  1  0  0  0  0
 38 39  2  0  0  0  0
 39 40  1  0  0  0  0
 40 41  4  0  0  0  0
 41 42  4  0  0  0  0
 42 43  4  0  0  0  0
 43 44  2  0  0  0  0
 44 45  4  0  0  0  0
 42 46  4  0  0  0  0
 45 46  4  0  0  0  0
 45 47  4  0  0  0  0
 47 48  4  0  0  0  0
 48 49  1  0  0  0  0
 49 50  2  0  0  0  0
 50 51  1  0  0  0  0
 48 52  4  0  0  0  0
 51 52  4  0  0  0  0
 51 53  4  0  0  0  0
 53 54  4  0  0  0  0
 54 55  4  0  0  0  0
 55 56  2  0  0  0  0
 56 57  4  0  0  0  0
 54 58  4  0  0  0  0
 57 58  4  0  0  0  0
 57 59  4  0  0  0  0
 38 60  1  0  0  0  0
 59 60  4  0  0  0  0
 40 61  4  0  0  0  0
 60 61  4  0  0  0  0
 38 62  1  0  0  0  0
 39 63  1  0  0  0  0
 43 64  1  0  0  0  0
 44 65  1  0  0  0  0
 46 66  1  0  0  0  0
 47 67  1  0  0  0  0
 49 68  1  0  0  0  0
 50 69  1  0  0  0  0
 53 70  1  0  0  0  0
 55 71  1  0  0  0  0
 56 72  1  0  0  0  0
 58 73  1  0  0  0  0
 59 74  1  0  0  0  0
  4 75  1  0  0  0  0
 75 76  3  0  0  0  0
 76 77  4  0  0  0  0
 77 78  3  0  0  0  0
 78 79  4  0  0  0  0
 79 80  3  0  0  0  0
 81 82  3  0  0  0  0
 82 83  4  0  0  0  0
 83 84  3  0  0  0  0
 84 85  4  0  0  0  0
 41 86  1  0  0  0  0
 85 86  3  0  0  0  0
 87 88  2  0  0  0  0
 88 89  1  0  0  0  0
 80 90  1  0  0  0  0
 89 90  4  0  0  0  0
 90 91  4  0  0  0  0
 91 92  4  0  0  0  0
 92 93  2  0  0  0  0
 93 94  4  0  0  0  0
 91 95  4  0  0  0  0
 94 95  4  0  0  0  0
 94 96  4  0  0  0  0
 96 97  4  0  0  0  0
 97 98  1  0  0  0  0
 98 99  2  0  0  0  0
 99100  1  0  0  0  0
 97101  4  0  0  0  0
100101  4  0  0  0  0
 81102  1  0  0  0  0
100102  4  0  0  0  0
102103  4  0  0  0  0
103104  4  0  0  0  0
104105  2  0  0  0  0
105106  4  0  0  0  0
103107  4  0  0  0  0
106107  4  0  0  0  0
106108  4  0  0  0  0
 87109  1  0  0  0  0
108109  4  0  0  0  0
 89110  4  0  0  0  0
109110  4  0  0  0  0
 87111  1  0  0  0  0
 88112  1  0  0  0  0
 92113  1  0  0  0  0
 93114  1  0  0  0  0
 95115  1  0  0  0  0
 96116  1  0  0  0  0
 98117  1  0  0  0  0
 99118  1  0  0  0  0
104119  1  0  0  0  0
105120  1  0  0  0  0
107121  1  0  0  0  0
108122  1  0  0  0  0
M  END
