
  xtb     11192110393D
 xtb: 6.4.1 (bd6e46d)
 74 89  0     0  0            999 V2000
    9.2289   -0.0465    0.0126 Co  0  0  0  0  0  0  0  0  0  0  0  0
   11.6317   -3.3730    1.0082 C   0  0  0  0  0  0  0  0  0  0  0  0
   12.6084   -2.4675    0.7755 C   0  0  0  0  0  0  0  0  0  0  0  0
   11.9538   -1.2573    0.3816 C   0  0  0  0  0  0  0  0  0  0  0  0
   12.6495   -0.0959    0.0456 C   0  0  0  0  0  0  0  0  0  0  0  0
   11.9939    1.0951   -0.2684 C   0  0  0  0  0  0  0  0  0  0  0  0
   12.6912    2.3044   -0.5859 C   0  0  0  0  0  0  0  0  0  0  0  0
   11.7466    3.2567   -0.7558 C   0  0  0  0  0  0  0  0  0  0  0  0
   10.4821    2.6160   -0.5561 C   0  0  0  0  0  0  0  0  0  0  0  0
   10.6441    1.2863   -0.2695 N   0  0  0  0  0  0  0  0  0  0  0  0
    9.2791    3.2825   -0.6455 C   0  0  0  0  0  0  0  0  0  0  0  0
    8.0568    2.6596   -0.5188 C   0  0  0  0  0  0  0  0  0  0  0  0
    6.8073    3.3485   -0.6613 C   0  0  0  0  0  0  0  0  0  0  0  0
    5.8391    2.4138   -0.5483 C   0  0  0  0  0  0  0  0  0  0  0  0
    6.5040    1.1627   -0.3269 C   0  0  0  0  0  0  0  0  0  0  0  0
    7.8607    1.3242   -0.3015 N   0  0  0  0  0  0  0  0  0  0  0  0
    5.8322   -0.0305   -0.1695 C   0  0  0  0  0  0  0  0  0  0  0  0
    6.4704   -1.2237    0.0931 C   0  0  0  0  0  0  0  0  0  0  0  0
    5.7704   -2.4579    0.3013 C   0  0  0  0  0  0  0  0  0  0  0  0
    6.7067   -3.3848    0.5983 C   0  0  0  0  0  0  0  0  0  0  0  0
    7.9723   -2.7120    0.5599 C   0  0  0  0  0  0  0  0  0  0  0  0
    7.8185   -1.3917    0.2406 N   0  0  0  0  0  0  0  0  0  0  0  0
    9.1689   -3.3398    0.8287 C   0  0  0  0  0  0  0  0  0  0  0  0
   10.3907   -2.7072    0.7512 C   0  0  0  0  0  0  0  0  0  0  0  0
   10.5985   -1.4040    0.3832 N   0  0  0  0  0  0  0  0  0  0  0  0
   11.7205   -4.3953    1.3206 H   0  0  0  0  0  0  0  0  0  0  0  0
   13.6708   -2.5794    0.8683 H   0  0  0  0  0  0  0  0  0  0  0  0
   13.7574    2.3870   -0.6666 H   0  0  0  0  0  0  0  0  0  0  0  0
   11.8715    4.2941   -0.9982 H   0  0  0  0  0  0  0  0  0  0  0  0
    9.2962    4.3431   -0.8458 H   0  0  0  0  0  0  0  0  0  0  0  0
    6.7121    4.4034   -0.8319 H   0  0  0  0  0  0  0  0  0  0  0  0
    4.7743    2.5336   -0.6033 H   0  0  0  0  0  0  0  0  0  0  0  0
    4.7550   -0.0272   -0.2369 H   0  0  0  0  0  0  0  0  0  0  0  0
    4.7058   -2.5709    0.2312 H   0  0  0  0  0  0  0  0  0  0  0  0
    6.5795   -4.4261    0.8231 H   0  0  0  0  0  0  0  0  0  0  0  0
    9.1507   -4.3842    1.1011 H   0  0  0  0  0  0  0  0  0  0  0  0
   14.0526   -0.1121    0.0547 C   0  0  0  0  0  0  0  0  0  0  0  0
   15.2645   -0.1132    0.0729 C   0  0  0  0  0  0  0  0  0  0  0  0
   20.0669    0.0467   -0.0183 Co  0  0  0  0  0  0  0  0  0  0  0  0
   17.5532    3.1590    1.2814 C   0  0  0  0  0  0  0  0  0  0  0  0
   16.6096    2.2497    0.9457 C   0  0  0  0  0  0  0  0  0  0  0  0
   17.3095    1.0991    0.4607 C   0  0  0  0  0  0  0  0  0  0  0  0
   16.6668   -0.0866    0.0975 C   0  0  0  0  0  0  0  0  0  0  0  0
   17.3797   -1.2597   -0.1543 C   0  0  0  0  0  0  0  0  0  0  0  0
   16.7515   -2.5320   -0.3409 C   0  0  0  0  0  0  0  0  0  0  0  0
   17.7473   -3.4448   -0.4108 C   0  0  0  0  0  0  0  0  0  0  0  0
   18.9756   -2.7160   -0.3125 C   0  0  0  0  0  0  0  0  0  0  0  0
   18.7378   -1.3767   -0.1558 N   0  0  0  0  0  0  0  0  0  0  0  0
   20.2175   -3.3020   -0.4429 C   0  0  0  0  0  0  0  0  0  0  0  0
   21.3836   -2.5749   -0.5542 C   0  0  0  0  0  0  0  0  0  0  0  0
   22.6502   -3.1608   -0.8839 C   0  0  0  0  0  0  0  0  0  0  0  0
   23.5151   -2.1366   -1.0533 C   0  0  0  0  0  0  0  0  0  0  0  0
   22.7815   -0.9339   -0.7853 C   0  0  0  0  0  0  0  0  0  0  0  0
   21.4791   -1.2131   -0.4817 N   0  0  0  0  0  0  0  0  0  0  0  0
   23.3570    0.3198   -0.7701 C   0  0  0  0  0  0  0  0  0  0  0  0
   22.6901    1.4413   -0.3229 C   0  0  0  0  0  0  0  0  0  0  0  0
   23.3279    2.7090   -0.1157 C   0  0  0  0  0  0  0  0  0  0  0  0
   22.4094    3.5111    0.4663 C   0  0  0  0  0  0  0  0  0  0  0  0
   21.2043    2.7417    0.5724 C   0  0  0  0  0  0  0  0  0  0  0  0
   21.3869    1.4776    0.0866 N   0  0  0  0  0  0  0  0  0  0  0  0
   20.0133    3.2532    1.0432 C   0  0  0  0  0  0  0  0  0  0  0  0
   18.8186    2.5689    0.9655 C   0  0  0  0  0  0  0  0  0  0  0  0
   18.6573    1.2975    0.4812 N   0  0  0  0  0  0  0  0  0  0  0  0
   17.4247    4.1433    1.6880 H   0  0  0  0  0  0  0  0  0  0  0  0
   15.5431    2.3190    1.0350 H   0  0  0  0  0  0  0  0  0  0  0  0
   15.6914   -2.6825   -0.3999 H   0  0  0  0  0  0  0  0  0  0  0  0
   17.6783   -4.5077   -0.5373 H   0  0  0  0  0  0  0  0  0  0  0  0
   20.2701   -4.3761   -0.5369 H   0  0  0  0  0  0  0  0  0  0  0  0
   22.8236   -4.2145   -0.9866 H   0  0  0  0  0  0  0  0  0  0  0  0
   24.5548   -2.1678   -1.3160 H   0  0  0  0  0  0  0  0  0  0  0  0
   24.3950    0.4143   -1.0503 H   0  0  0  0  0  0  0  0  0  0  0  0
   24.3475    2.9248   -0.3703 H   0  0  0  0  0  0  0  0  0  0  0  0
   22.5091    4.5308    0.7849 H   0  0  0  0  0  0  0  0  0  0  0  0
   20.0019    4.2622    1.4264 H   0  0  0  0  0  0  0  0  0  0  0  0
  2  3  2  0  0  0  0
  3  4  1  0  0  0  0
  4  5  4  0  0  0  0
  5  6  4  0  0  0  0
  6  7  1  0  0  0  0
  7  8  2  0  0  0  0
  8  9  1  0  0  0  0
  1 10  1  0  0  0  0
  6 10  4  0  0  0  0
  9 10  4  0  0  0  0
  9 11  4  0  0  0  0
 11 12  4  0  0  0  0
 12 13  1  0  0  0  0
 13 14  2  0  0  0  0
 14 15  1  0  0  0  0
  1 16  1  0  0  0  0
 12 16  4  0  0  0  0
 15 16  4  0  0  0  0
 15 17  4  0  0  0  0
 17 18  4  0  0  0  0
 18 19  1  0  0  0  0
 19 20  2  0  0  0  0
 20 21  1  0  0  0  0
  1 22  1  0  0  0  0
 18 22  4  0  0  0  0
 21 22  4  0  0  0  0
 21 23  4  0  0  0  0
  2 24  1  0  0  0  0
 23 24  4  0  0  0  0
  1 25  1  0  0  0  0
  4 25  4  0  0  0  0
 24 25  4  0  0  0  0
  2 26  1  0  0  0  0
  3 27  1  0  0  0  0
  7 28  1  0  0  0  0
  8 29  1  0  0  0  0
 11 30  1  0  0  0  0
 13 31  1  0  0  0  0
 14 32  1  0  0  0  0
 17 33  1  0  0  0  0
 19 34  1  0  0  0  0
 20 35  1  0  0  0  0
 23 36  1  0  0  0  0
  5 37  1  0  0  0  0
 37 38  3  0  0  0  0
 40 41  2  0  0  0  0
 41 42  1  0  0  0  0
 38 43  1  0  0  0  0
 42 43  4  0  0  0  0
 43 44  4  0  0  0  0
 44 45  1  0  0  0  0
 45 46  2  0  0  0  0
 46 47  1  0  0  0  0
 39 48  1  0  0  0  0
 44 48  4  0  0  0  0
 47 48  4  0  0  0  0
 47 49  4  0  0  0  0
 49 50  4  0  0  0  0
 50 51  1  0  0  0  0
 51 52  2  0  0  0  0
 52 53  1  0  0  0  0
 39 54  1  0  0  0  0
 50 54  4  0  0  0  0
 53 54  4  0  0  0  0
 53 55  4  0  0  0  0
 55 56  4  0  0  0  0
 56 57  1  0  0  0  0
 57 58  2  0  0  0  0
 58 59  1  0  0  0  0
 39 60  1  0  0  0  0
 56 60  4  0  0  0  0
 59 60  4  0  0  0  0
 59 61  4  0  0  0  0
 40 62  1  0  0  0  0
 61 62  4  0  0  0  0
 39 63  1  0  0  0  0
 42 63  4  0  0  0  0
 62 63  4  0  0  0  0
 40 64  1  0  0  0  0
 41 65  1  0  0  0  0
 45 66  1  0  0  0  0
 46 67  1  0  0  0  0
 49 68  1  0  0  0  0
 51 69  1  0  0  0  0
 52 70  1  0  0  0  0
 55 71  1  0  0  0  0
 57 72  1  0  0  0  0
 58 73  1  0  0  0  0
 61 74  1  0  0  0  0
M  END
