259

Zn 51.074667 0.054709 -0.004692
C 53.583663 -3.213548 1.108513
C 54.543336 -2.314531 0.782544
C 53.863627 -1.113999 0.385879
C 54.509857 0.057812 -0.035540
C 53.853817 1.226102 -0.451042
C 54.524076 2.425437 -0.866782
C 53.557126 3.320038 -1.183212
C 52.298969 2.667339 -0.954911
N 52.511087 1.397289 -0.510015
C 51.062321 3.258487 -1.153591
C 49.831142 2.667477 -0.924256
C 48.562679 3.311965 -1.132072
C 47.609127 2.413417 -0.793175
C 48.294197 1.218735 -0.378582
N 49.637393 1.402227 -0.467812
C 47.666951 0.058348 0.044798
C 48.303781 -1.104400 0.446918
C 47.628444 -2.298564 0.878577
C 48.589419 -3.201556 1.182954
C 49.852679 -2.559643 0.938746
N 49.648565 -1.291938 0.493778
C 51.088663 -3.153924 1.130787
C 52.320511 -2.561617 0.907352
N 52.522478 -1.288523 0.466388
H 53.704741 -4.223561 1.449864
H 55.608724 -2.439979 0.791325
H 55.588920 2.552736 -0.894473
H 53.670161 4.327800 -1.533856
H 51.059194 4.277059 -1.516178
H 48.438073 4.316413 -1.488810
H 46.542579 2.530402 -0.814890
H 46.586070 0.059958 0.061943
H 46.562761 -2.412274 0.933961
H 48.473047 -4.207088 1.539435
H 51.093652 -4.174776 1.486881
Zn 116.458824 0.036103 -0.015983
C 113.936521 1.779153 2.951727
C 112.980736 1.280043 2.131521
C 113.664855 0.658995 1.033124
C 113.022615 0.026815 -0.042723
C 113.684457 -0.600447 -1.109264
C 113.020605 -1.223465 -2.218889
C 113.991657 -1.713545 -3.026555
C 115.246260 -1.384098 -2.411532
N 115.027840 -0.704991 -1.250796
C 116.485516 -1.714942 -2.934000
C 117.714114 -1.400407 -2.377826
C 118.985406 -1.759007 -2.945934
C 119.935158 -1.266608 -2.117075
C 119.244905 -0.606203 -1.041971
N 117.902399 -0.705324 -1.225414
C 119.867328 0.036969 0.015442
C 119.225424 0.681402 1.060368
C 119.895479 1.344033 2.146832
C 118.930388 1.839259 2.956065
C 117.669995 1.479519 2.364935
N 117.879748 0.781336 1.218122
C 116.431184 1.793707 2.898060
C 115.202106 1.456247 2.356246
N 115.005278 0.772822 1.194123
H 113.811166 2.311900 3.874642
H 111.915256 1.308245 2.251675
H 111.957030 -1.259707 -2.353483
H 113.883541 -2.244566 -3.952634
H 116.493261 -2.267464 -3.863309
H 119.114323 -2.312556 -3.856237
H 121.002302 -1.333523 -2.208738
H 120.948293 0.036534 0.025734
H 120.960713 1.410465 2.258803
H 119.042196 2.395107 3.867243
H 116.421267 2.349296 3.825525
C 55.913853 0.061106 -0.040841
C 57.126409 0.062088 -0.041837
C 66.808986 0.003636 -0.016647
C 68.022314 0.007817 -0.012886
C 77.708327 0.010499 -0.016392
C 78.921886 0.016160 -0.019976
C 88.609571 0.070017 -0.043642
C 89.823297 0.072323 -0.038528
C 99.510036 0.054809 0.017514
C 100.723306 0.049582 0.013965
C 110.406159 0.024348 -0.055938
C 111.618992 0.024010 -0.051771
Zn 61.967308 0.028214 -0.031791
C 59.452146 -1.932958 2.801909
C 58.493610 -1.382534 2.018167
C 59.175135 -0.670749 0.974867
C 58.529997 0.054700 -0.038173
C 59.189888 0.772157 -1.047171
C 58.523157 1.498330 -2.090086
C 59.492820 2.032835 -2.871144
C 60.748172 1.628688 -2.305517
N 60.532952 0.866279 -1.197022
C 61.986616 1.955277 -2.831112
C 63.217246 1.572932 -2.325494
C 64.479250 1.913086 -2.917267
C 65.437845 1.362948 -2.133472
C 64.758670 0.693498 -1.061403
N 63.418100 0.826008 -1.203380
C 65.406221 0.006640 -0.022104
C 64.744845 -0.676747 1.010594
C 65.409511 -1.361888 2.081825
C 64.439679 -1.903760 2.857509
C 63.185290 -1.541492 2.262620
N 63.401865 -0.792058 1.145164
C 61.946925 -1.903620 2.764275
C 60.715561 -1.552735 2.237690
N 60.516052 -0.787545 1.128160
H 59.329616 -2.535566 3.681168
H 57.427819 -1.432044 2.129432
H 57.458589 1.568000 -2.202459
H 59.382901 2.639832 -3.749049
H 61.993202 2.561536 -3.726390
H 64.600909 2.491012 -3.813053
H 66.502083 1.385189 -2.263986
H 66.472720 -1.400509 2.216843
H 64.548940 -2.489666 3.749701
H 61.940671 -2.512307 3.657910
Zn 72.865081 0.010959 -0.010796
C 70.374060 -2.991561 1.711532
C 69.409484 -2.184370 1.207459
C 70.080348 -1.069237 0.603370
C 69.425004 0.009786 -0.010899
C 70.079440 1.090158 -0.623919
C 69.408065 2.205480 -1.227197
C 70.372379 3.013701 -1.730223
C 71.629939 2.393608 -1.426333
N 71.421111 1.231761 -0.745524
C 72.864059 2.902913 -1.792490
C 74.098209 2.346136 -1.504061
C 75.355027 2.893647 -1.926888
C 76.319621 2.078984 -1.435087
C 75.649622 1.041175 -0.705430
N 74.308028 1.215732 -0.772256
C 76.305714 0.009495 -0.014545
C 75.650685 -1.021820 0.677613
C 76.321533 -2.060860 1.404746
C 75.357245 -2.873958 1.899794
C 74.099852 -2.324645 1.480857
N 74.309012 -1.194583 0.748404
C 72.865858 -2.880379 1.772166
C 71.631377 -2.371175 1.407101
N 71.422025 -1.209899 0.725473
H 70.259206 -3.920255 2.236462
H 68.346202 -2.323378 1.222414
H 68.344724 2.344225 -1.242305
H 70.257294 3.942805 -2.254396
H 72.863975 3.823584 -2.359516
H 75.469585 3.778786 -2.522385
H 77.382288 2.151477 -1.558851
H 77.384634 -2.135484 1.524008
H 75.472152 -3.759379 2.494822
H 72.866235 -3.800741 2.339692
Zn 83.765296 0.040860 -0.042965
C 81.295296 -3.385380 0.541168
C 80.324827 -2.459918 0.346636
C 80.987299 -1.199899 0.168321
C 80.324432 0.022664 -0.025999
C 80.973167 1.251778 -0.227528
C 80.296113 2.505011 -0.398546
C 81.254742 3.439800 -0.606696
C 82.515067 2.756580 -0.552918
N 82.313357 1.430977 -0.309346
C 83.744758 3.363628 -0.742312
C 84.982278 2.747098 -0.672081
C 86.234366 3.410148 -0.897351
C 87.204795 2.483484 -0.708507
C 86.543247 1.259131 -0.360077
N 85.200610 1.438656 -0.359717
C 87.206982 0.062044 -0.045638
C 86.557819 -1.143520 0.267396
C 87.234389 -2.359918 0.614641
C 86.275768 -3.299432 0.799967
C 85.015553 -2.651648 0.576172
N 85.217491 -1.339970 0.266185
C 83.785844 -3.283134 0.650508
C 82.547958 -2.689363 0.473236
N 82.330062 -1.365589 0.233971
H 81.187330 -4.439183 0.711673
H 79.262669 -2.602964 0.310259
H 79.233282 2.637948 -0.347503
H 81.133991 4.492281 -0.776746
H 83.737975 4.421619 -0.965432
H 86.342006 4.443261 -1.166276
H 88.266348 2.598400 -0.806886
H 88.296964 -2.461382 0.715513
H 86.396477 -4.331619 1.066822
H 83.792984 -4.341718 0.870758
Zn 94.667523 0.064824 -0.001946
C 92.173932 -3.357888 -0.500076
C 91.210837 -2.408257 -0.419245
C 91.881297 -1.158393 -0.203765
C 91.225921 0.071760 -0.030624
C 91.882968 1.299441 0.152177
C 91.214066 2.552503 0.353352
C 92.179841 3.497688 0.452846
C 93.436456 2.818112 0.321527
N 93.225178 1.482762 0.149498
C 94.671647 3.442469 0.353203
C 95.905755 2.822904 0.254984
C 97.164581 3.511048 0.272343
C 98.127943 2.563245 0.173488
C 97.454648 1.298165 0.103620
N 96.113008 1.480704 0.143228
C 98.107370 0.058272 0.017013
C 97.450710 -1.179420 -0.072104
C 98.120098 -2.447174 -0.130112
C 97.154449 -3.391766 -0.236760
C 95.898201 -2.698826 -0.236974
N 96.108987 -1.357115 -0.125920
C 94.663457 -3.313788 -0.353298
C 93.430731 -2.684036 -0.344324
N 93.222306 -1.347697 -0.176369
H 92.058446 -4.413356 -0.654511
H 90.149013 -2.524800 -0.511421
H 90.150979 2.673952 0.422772
H 92.066320 4.553811 0.604317
H 94.672508 4.517839 0.466146
H 97.281204 4.575067 0.346497
H 99.191958 2.692719 0.136648
H 99.183073 -2.580484 -0.079812
H 97.267837 -4.456453 -0.306036
H 94.661812 -4.389300 -0.464712
Zn 105.564778 0.036572 -0.023607
C 103.050582 -2.903301 -1.819878
C 102.092228 -2.077066 -1.335277
C 102.772393 -1.013429 -0.653444
C 102.126009 0.044963 0.004567
C 102.788182 1.099278 0.653182
C 102.124204 2.165452 1.346865
C 103.094208 2.986781 1.816389
C 104.347833 2.416324 1.414443
N 104.130873 1.266708 0.715483
C 105.585840 2.968569 1.694750
C 106.816324 2.440837 1.342666
C 108.078709 3.055579 1.637868
C 109.036896 2.233483 1.145914
C 108.356651 1.115618 0.557022
N 107.016163 1.267305 0.679656
C 109.002935 0.028663 -0.051913
C 108.342244 -1.053415 -0.653481
C 109.007603 -2.171657 -1.258386
C 108.037543 -2.989032 -1.734766
C 106.782893 -2.370988 -1.414135
N 106.999113 -1.199580 -0.752616
C 105.544112 -2.894529 -1.742857
C 104.313348 -2.338056 -1.439691
N 104.113126 -1.187263 -0.737652
H 102.928274 -3.807425 -2.384532
H 101.027383 -2.158178 -1.433882
H 101.061460 2.251346 1.462794
H 102.985577 3.890877 2.383876
H 105.592490 3.901397 2.241465
H 108.200899 3.991014 2.149002
H 110.101450 2.363637 1.159657
H 110.071423 -2.304191 -1.293827
H 108.146792 -3.923143 -2.251247
H 105.537275 -3.827187 -2.289886
