206

C 28.948242 3.410067 0.280544
C 29.906042 2.463912 0.229701
C 29.208017 1.196527 0.108062
C 29.871196 -0.044808 0.028320
C 29.219210 -1.284404 -0.081228
C 29.819052 -2.569580 -0.161145
C 28.812274 -3.486367 -0.259076
C 27.576185 -2.780744 -0.242364
N 27.874811 -1.456458 -0.132553
C 26.307809 -3.335788 -0.326451
C 25.091183 -2.667580 -0.320158
C 23.814470 -3.360071 -0.421432
C 22.865604 -2.406308 -0.386511
C 23.569828 -1.139457 -0.262761
N 24.905040 -1.334796 -0.226281
C 22.924327 0.088610 -0.191751
C 23.551209 1.319129 -0.069593
C 22.949719 2.607521 0.012598
C 23.952390 3.524691 0.124875
C 25.192135 2.820984 0.113300
N 24.897445 1.499773 -0.004913
C 26.460664 3.374850 0.202378
C 27.677970 2.710535 0.187335
N 27.876832 1.374211 0.085355
H 29.053814 4.474176 0.369928
H 30.972445 2.574512 0.268745
H 30.875780 -2.753087 -0.144766
H 28.906125 -4.552026 -0.337017
H 27.206438 -0.695434 -0.094977
H 26.265200 -4.413107 -0.409145
H 23.702904 -4.424152 -0.506096
H 21.798494 -2.509310 -0.436062
H 21.844734 0.084621 -0.233606
H 21.893364 2.792489 -0.011727
H 23.857134 4.590025 0.208138
H 25.564129 0.737986 -0.041899
H 26.504723 4.451692 0.291554
C 88.400652 -3.394249 0.470183
C 87.442941 -2.447807 0.422385
C 88.139150 -1.184431 0.256997
C 87.475209 0.055796 0.165558
C 88.125593 1.293407 0.027505
C 87.524570 2.578136 -0.050756
C 88.529271 3.493721 -0.177430
C 89.765064 2.787487 -0.182634
N 89.468597 1.464399 -0.053845
C 91.031383 3.339911 -0.305921
C 92.246183 2.668862 -0.331918
C 93.520444 3.356762 -0.483196
C 94.467344 2.400478 -0.473543
C 93.764575 1.136859 -0.313343
N 92.431984 1.336447 -0.232277
C 94.409331 -0.092103 -0.251809
C 93.785192 -1.319541 -0.090925
C 94.387735 -2.607622 -0.011156
C 93.388913 -3.521224 0.152629
C 92.150395 -2.815667 0.175241
N 92.442013 -1.496984 0.025391
C 90.885044 -3.365546 0.318173
C 89.668867 -2.699071 0.328765
N 89.469134 -1.364663 0.205462
H 88.296138 -4.455983 0.585340
H 86.377731 -2.555840 0.490628
H 86.468501 2.762253 -0.012749
H 88.434078 4.558773 -0.261644
H 90.138082 0.704037 -0.024521
H 91.073447 4.416394 -0.398971
H 93.631784 4.419702 -0.581363
H 95.532318 2.499819 -0.561592
H 95.486726 -0.091326 -0.332628
H 95.442260 -2.794771 -0.071653
H 93.486017 -4.585296 0.248866
H 91.774593 -0.735380 0.001044
H 90.842482 -4.440475 0.428377
C 31.266805 -0.048493 0.054972
C 32.487209 -0.042045 0.070166
C 33.822694 -0.032617 0.079431
C 35.047544 -0.016992 0.081115
C 36.382804 -0.003100 0.076159
C 37.603458 0.012053 0.066582
C 47.426394 -0.024138 -0.018216
C 48.647262 -0.009483 -0.017695
C 49.982018 0.004701 -0.016301
C 51.207160 0.019208 -0.011877
C 52.541909 0.031584 -0.008422
C 53.762832 0.042488 -0.003918
C 63.588418 -0.026747 -0.011463
C 64.809363 -0.016418 -0.014436
C 66.144069 -0.004373 -0.015895
C 67.369144 0.010076 -0.015220
C 68.703858 0.023996 -0.011882
C 69.924800 0.037650 -0.004349
C 79.743894 0.003667 0.170377
C 80.964340 0.018120 0.196211
C 82.299371 0.031885 0.214090
C 83.524206 0.045559 0.225025
C 84.859610 0.054533 0.220738
C 86.080060 0.059912 0.205345
C 39.984620 -3.400377 0.462391
C 39.007788 -2.477913 0.359658
C 39.680453 -1.203051 0.193101
C 38.997795 0.022095 0.050226
C 39.644291 1.259589 -0.112814
C 39.047506 2.537745 -0.267757
C 40.058812 3.446431 -0.400193
C 41.292560 2.741507 -0.328170
N 40.989743 1.425628 -0.153754
C 42.560603 3.299527 -0.419482
C 43.788803 2.662166 -0.350591
C 45.045722 3.383817 -0.457117
C 46.022563 2.462782 -0.342412
C 45.349672 1.188823 -0.169317
N 44.014919 1.337070 -0.178382
C 46.032443 -0.035147 -0.014520
C 45.385671 -1.272959 0.144867
C 45.982831 -2.551006 0.300315
C 44.971723 -3.461493 0.420429
C 43.737635 -2.757671 0.341722
N 44.040346 -1.440648 0.174635
C 42.469615 -3.316579 0.423379
C 41.241421 -2.678324 0.357588
N 41.015498 -1.352199 0.195461
H 39.899953 -4.461723 0.595764
H 37.943436 -2.609426 0.388844
H 37.991167 2.723557 -0.275500
H 39.968167 4.506661 -0.535283
H 41.643434 0.655155 -0.065420
H 42.590345 4.371595 -0.560665
H 45.130778 4.444117 -0.598363
H 47.086974 2.594623 -0.368213
H 47.039328 -2.735477 0.315749
H 45.062548 -4.522161 0.551867
H 43.386025 -0.671078 0.083706
H 42.439215 -4.389556 0.557323
C 56.130001 -3.375823 0.427732
C 55.156694 -2.451100 0.312702
C 55.834462 -1.178236 0.151317
C 55.156758 0.048700 -0.002108
C 55.809336 1.284415 -0.154591
C 55.218849 2.565300 -0.311253
C 56.234965 3.471383 -0.423046
C 57.465238 2.761927 -0.337366
N 57.155615 1.445979 -0.175358
C 58.735990 3.316653 -0.407430
C 59.961615 2.675053 -0.331809
C 61.221386 3.393895 -0.422543
C 62.194687 2.468583 -0.312285
C 61.516868 1.195176 -0.155459
N 60.182549 1.347804 -0.170544
C 62.194520 -0.032444 -0.007418
C 61.541969 -1.267976 0.146687
C 62.132490 -2.548951 0.302460
C 61.116406 -3.454511 0.418833
C 59.886137 -2.744696 0.336388
N 60.195707 -1.429037 0.171967
C 58.615367 -3.298898 0.410474
C 57.389760 -2.657290 0.334503
N 57.168793 -1.330656 0.168368
H 56.040806 -4.436711 0.561828
H 54.091741 -2.579628 0.330959
H 54.163293 2.754374 -0.333339
H 56.149877 4.532703 -0.552972
H 57.804783 0.672237 -0.081857
H 58.770775 4.389830 -0.538771
H 61.310577 4.455361 -0.552048
H 63.259657 2.597134 -0.330426
H 63.188041 -2.738400 0.321178
H 61.201551 -4.515718 0.549643
H 59.546511 -0.655148 0.080057
H 58.580528 -4.371749 0.544436
C 72.293081 -3.374471 0.459650
C 71.319750 -2.451879 0.328968
C 71.997304 -1.177916 0.174806
C 71.318735 0.046749 0.007511
C 71.969020 1.283063 -0.148880
C 71.375425 2.559498 -0.329425
C 72.388921 3.468567 -0.439726
C 73.620970 2.765735 -0.327738
N 73.314663 1.450455 -0.153634
C 74.890673 3.324036 -0.383472
C 76.116402 2.687337 -0.272486
C 77.375689 3.409175 -0.343589
C 78.348891 2.489110 -0.195077
C 77.671575 1.215578 -0.037047
N 76.337383 1.363385 -0.086949
C 78.349906 -0.007480 0.140501
C 77.699908 -1.245470 0.285115
C 78.293306 -2.522730 0.458896
C 77.279784 -3.433870 0.552124
C 76.048058 -2.731101 0.438160
N 76.354193 -1.414140 0.278110
C 74.778401 -3.290909 0.485718
C 73.552553 -2.653317 0.384958
N 73.331409 -1.327492 0.211879
H 72.204082 -4.435281 0.594415
H 70.254941 -2.582879 0.331321
H 70.319483 2.743805 -0.367864
H 72.300916 4.527730 -0.584556
H 73.967511 0.682375 -0.042261
H 74.924804 4.395265 -0.529900
H 77.464390 4.468900 -0.486955
H 79.413543 2.621304 -0.188942
H 79.349090 -2.706422 0.503931
H 77.367667 -4.494297 0.687393
H 75.701969 -0.645528 0.166467
H 74.745060 -4.363616 0.621058
