
  xtb     11212121123D
 xtb: 6.4.1 (bd6e46d)
206230  0     0  0            999 V2000
   28.9482    3.4101    0.2805 C   0  0  0  0  0  0  0  0  0  0  0  0
   29.9060    2.4639    0.2297 C   0  0  0  0  0  0  0  0  0  0  0  0
   29.2080    1.1965    0.1081 C   0  0  0  0  0  0  0  0  0  0  0  0
   29.8712   -0.0448    0.0283 C   0  0  0  0  0  0  0  0  0  0  0  0
   29.2192   -1.2844   -0.0812 C   0  0  0  0  0  0  0  0  0  0  0  0
   29.8191   -2.5696   -0.1611 C   0  0  0  0  0  0  0  0  0  0  0  0
   28.8123   -3.4864   -0.2591 C   0  0  0  0  0  0  0  0  0  0  0  0
   27.5762   -2.7807   -0.2424 C   0  0  0  0  0  0  0  0  0  0  0  0
   27.8748   -1.4565   -0.1326 N   0  0  0  0  0  0  0  0  0  0  0  0
   26.3078   -3.3358   -0.3265 C   0  0  0  0  0  0  0  0  0  0  0  0
   25.0912   -2.6676   -0.3202 C   0  0  0  0  0  0  0  0  0  0  0  0
   23.8145   -3.3601   -0.4214 C   0  0  0  0  0  0  0  0  0  0  0  0
   22.8656   -2.4063   -0.3865 C   0  0  0  0  0  0  0  0  0  0  0  0
   23.5698   -1.1395   -0.2628 C   0  0  0  0  0  0  0  0  0  0  0  0
   24.9050   -1.3348   -0.2263 N   0  0  0  0  0  0  0  0  0  0  0  0
   22.9243    0.0886   -0.1918 C   0  0  0  0  0  0  0  0  0  0  0  0
   23.5512    1.3191   -0.0696 C   0  0  0  0  0  0  0  0  0  0  0  0
   22.9497    2.6075    0.0126 C   0  0  0  0  0  0  0  0  0  0  0  0
   23.9524    3.5247    0.1249 C   0  0  0  0  0  0  0  0  0  0  0  0
   25.1921    2.8210    0.1133 C   0  0  0  0  0  0  0  0  0  0  0  0
   24.8974    1.4998   -0.0049 N   0  0  0  0  0  0  0  0  0  0  0  0
   26.4607    3.3748    0.2024 C   0  0  0  0  0  0  0  0  0  0  0  0
   27.6780    2.7105    0.1873 C   0  0  0  0  0  0  0  0  0  0  0  0
   27.8768    1.3742    0.0854 N   0  0  0  0  0  0  0  0  0  0  0  0
   29.0538    4.4742    0.3699 H   0  0  0  0  0  0  0  0  0  0  0  0
   30.9724    2.5745    0.2687 H   0  0  0  0  0  0  0  0  0  0  0  0
   30.8758   -2.7531   -0.1448 H   0  0  0  0  0  0  0  0  0  0  0  0
   28.9061   -4.5520   -0.3370 H   0  0  0  0  0  0  0  0  0  0  0  0
   27.2064   -0.6954   -0.0950 H   0  0  0  0  0  0  0  0  0  0  0  0
   26.2652   -4.4131   -0.4091 H   0  0  0  0  0  0  0  0  0  0  0  0
   23.7029   -4.4242   -0.5061 H   0  0  0  0  0  0  0  0  0  0  0  0
   21.7985   -2.5093   -0.4361 H   0  0  0  0  0  0  0  0  0  0  0  0
   21.8447    0.0846   -0.2336 H   0  0  0  0  0  0  0  0  0  0  0  0
   21.8934    2.7925   -0.0117 H   0  0  0  0  0  0  0  0  0  0  0  0
   23.8571    4.5900    0.2081 H   0  0  0  0  0  0  0  0  0  0  0  0
   25.5641    0.7380   -0.0419 H   0  0  0  0  0  0  0  0  0  0  0  0
   26.5047    4.4517    0.2916 H   0  0  0  0  0  0  0  0  0  0  0  0
   88.4007   -3.3942    0.4702 C   0  0  0  0  0  0  0  0  0  0  0  0
   87.4429   -2.4478    0.4224 C   0  0  0  0  0  0  0  0  0  0  0  0
   88.1392   -1.1844    0.2570 C   0  0  0  0  0  0  0  0  0  0  0  0
   87.4752    0.0558    0.1656 C   0  0  0  0  0  0  0  0  0  0  0  0
   88.1256    1.2934    0.0275 C   0  0  0  0  0  0  0  0  0  0  0  0
   87.5246    2.5781   -0.0508 C   0  0  0  0  0  0  0  0  0  0  0  0
   88.5293    3.4937   -0.1774 C   0  0  0  0  0  0  0  0  0  0  0  0
   89.7651    2.7875   -0.1826 C   0  0  0  0  0  0  0  0  0  0  0  0
   89.4686    1.4644   -0.0538 N   0  0  0  0  0  0  0  0  0  0  0  0
   91.0314    3.3399   -0.3059 C   0  0  0  0  0  0  0  0  0  0  0  0
   92.2462    2.6689   -0.3319 C   0  0  0  0  0  0  0  0  0  0  0  0
   93.5204    3.3568   -0.4832 C   0  0  0  0  0  0  0  0  0  0  0  0
   94.4673    2.4005   -0.4735 C   0  0  0  0  0  0  0  0  0  0  0  0
   93.7646    1.1369   -0.3133 C   0  0  0  0  0  0  0  0  0  0  0  0
   92.4320    1.3364   -0.2323 N   0  0  0  0  0  0  0  0  0  0  0  0
   94.4093   -0.0921   -0.2518 C   0  0  0  0  0  0  0  0  0  0  0  0
   93.7852   -1.3195   -0.0909 C   0  0  0  0  0  0  0  0  0  0  0  0
   94.3877   -2.6076   -0.0112 C   0  0  0  0  0  0  0  0  0  0  0  0
   93.3889   -3.5212    0.1526 C   0  0  0  0  0  0  0  0  0  0  0  0
   92.1504   -2.8157    0.1752 C   0  0  0  0  0  0  0  0  0  0  0  0
   92.4420   -1.4970    0.0254 N   0  0  0  0  0  0  0  0  0  0  0  0
   90.8850   -3.3655    0.3182 C   0  0  0  0  0  0  0  0  0  0  0  0
   89.6689   -2.6991    0.3288 C   0  0  0  0  0  0  0  0  0  0  0  0
   89.4691   -1.3647    0.2055 N   0  0  0  0  0  0  0  0  0  0  0  0
   88.2961   -4.4560    0.5853 H   0  0  0  0  0  0  0  0  0  0  0  0
   86.3777   -2.5558    0.4906 H   0  0  0  0  0  0  0  0  0  0  0  0
   86.4685    2.7623   -0.0127 H   0  0  0  0  0  0  0  0  0  0  0  0
   88.4341    4.5588   -0.2616 H   0  0  0  0  0  0  0  0  0  0  0  0
   90.1381    0.7040   -0.0245 H   0  0  0  0  0  0  0  0  0  0  0  0
   91.0734    4.4164   -0.3990 H   0  0  0  0  0  0  0  0  0  0  0  0
   93.6318    4.4197   -0.5814 H   0  0  0  0  0  0  0  0  0  0  0  0
   95.5323    2.4998   -0.5616 H   0  0  0  0  0  0  0  0  0  0  0  0
   95.4867   -0.0913   -0.3326 H   0  0  0  0  0  0  0  0  0  0  0  0
   95.4423   -2.7948   -0.0717 H   0  0  0  0  0  0  0  0  0  0  0  0
   93.4860   -4.5853    0.2489 H   0  0  0  0  0  0  0  0  0  0  0  0
   91.7746   -0.7354    0.0010 H   0  0  0  0  0  0  0  0  0  0  0  0
   90.8425   -4.4405    0.4284 H   0  0  0  0  0  0  0  0  0  0  0  0
   31.2668   -0.0485    0.0550 C   0  0  0  0  0  0  0  0  0  0  0  0
   32.4872   -0.0420    0.0702 C   0  0  0  0  0  0  0  0  0  0  0  0
   33.8227   -0.0326    0.0794 C   0  0  0  0  0  0  0  0  0  0  0  0
   35.0475   -0.0170    0.0811 C   0  0  0  0  0  0  0  0  0  0  0  0
   36.3828   -0.0031    0.0762 C   0  0  0  0  0  0  0  0  0  0  0  0
   37.6035    0.0121    0.0666 C   0  0  0  0  0  0  0  0  0  0  0  0
   47.4264   -0.0241   -0.0182 C   0  0  0  0  0  0  0  0  0  0  0  0
   48.6473   -0.0095   -0.0177 C   0  0  0  0  0  0  0  0  0  0  0  0
   49.9820    0.0047   -0.0163 C   0  0  0  0  0  0  0  0  0  0  0  0
   51.2072    0.0192   -0.0119 C   0  0  0  0  0  0  0  0  0  0  0  0
   52.5419    0.0316   -0.0084 C   0  0  0  0  0  0  0  0  0  0  0  0
   53.7628    0.0425   -0.0039 C   0  0  0  0  0  0  0  0  0  0  0  0
   63.5884   -0.0267   -0.0115 C   0  0  0  0  0  0  0  0  0  0  0  0
   64.8094   -0.0164   -0.0144 C   0  0  0  0  0  0  0  0  0  0  0  0
   66.1441   -0.0044   -0.0159 C   0  0  0  0  0  0  0  0  0  0  0  0
   67.3691    0.0101   -0.0152 C   0  0  0  0  0  0  0  0  0  0  0  0
   68.7039    0.0240   -0.0119 C   0  0  0  0  0  0  0  0  0  0  0  0
   69.9248    0.0377   -0.0043 C   0  0  0  0  0  0  0  0  0  0  0  0
   79.7439    0.0037    0.1704 C   0  0  0  0  0  0  0  0  0  0  0  0
   80.9643    0.0181    0.1962 C   0  0  0  0  0  0  0  0  0  0  0  0
   82.2994    0.0319    0.2141 C   0  0  0  0  0  0  0  0  0  0  0  0
   83.5242    0.0456    0.2250 C   0  0  0  0  0  0  0  0  0  0  0  0
   84.8596    0.0545    0.2207 C   0  0  0  0  0  0  0  0  0  0  0  0
   86.0801    0.0599    0.2053 C   0  0  0  0  0  0  0  0  0  0  0  0
   39.9846   -3.4004    0.4624 C   0  0  0  0  0  0  0  0  0  0  0  0
   39.0078   -2.4779    0.3597 C   0  0  0  0  0  0  0  0  0  0  0  0
   39.6805   -1.2031    0.1931 C   0  0  0  0  0  0  0  0  0  0  0  0
   38.9978    0.0221    0.0502 C   0  0  0  0  0  0  0  0  0  0  0  0
   39.6443    1.2596   -0.1128 C   0  0  0  0  0  0  0  0  0  0  0  0
   39.0475    2.5377   -0.2678 C   0  0  0  0  0  0  0  0  0  0  0  0
   40.0588    3.4464   -0.4002 C   0  0  0  0  0  0  0  0  0  0  0  0
   41.2926    2.7415   -0.3282 C   0  0  0  0  0  0  0  0  0  0  0  0
   40.9897    1.4256   -0.1538 N   0  0  0  0  0  0  0  0  0  0  0  0
   42.5606    3.2995   -0.4195 C   0  0  0  0  0  0  0  0  0  0  0  0
   43.7888    2.6622   -0.3506 C   0  0  0  0  0  0  0  0  0  0  0  0
   45.0457    3.3838   -0.4571 C   0  0  0  0  0  0  0  0  0  0  0  0
   46.0226    2.4628   -0.3424 C   0  0  0  0  0  0  0  0  0  0  0  0
   45.3497    1.1888   -0.1693 C   0  0  0  0  0  0  0  0  0  0  0  0
   44.0149    1.3371   -0.1784 N   0  0  0  0  0  0  0  0  0  0  0  0
   46.0324   -0.0351   -0.0145 C   0  0  0  0  0  0  0  0  0  0  0  0
   45.3857   -1.2730    0.1449 C   0  0  0  0  0  0  0  0  0  0  0  0
   45.9828   -2.5510    0.3003 C   0  0  0  0  0  0  0  0  0  0  0  0
   44.9717   -3.4615    0.4204 C   0  0  0  0  0  0  0  0  0  0  0  0
   43.7376   -2.7577    0.3417 C   0  0  0  0  0  0  0  0  0  0  0  0
   44.0403   -1.4406    0.1746 N   0  0  0  0  0  0  0  0  0  0  0  0
   42.4696   -3.3166    0.4234 C   0  0  0  0  0  0  0  0  0  0  0  0
   41.2414   -2.6783    0.3576 C   0  0  0  0  0  0  0  0  0  0  0  0
   41.0155   -1.3522    0.1955 N   0  0  0  0  0  0  0  0  0  0  0  0
   39.9000   -4.4617    0.5958 H   0  0  0  0  0  0  0  0  0  0  0  0
   37.9434   -2.6094    0.3888 H   0  0  0  0  0  0  0  0  0  0  0  0
   37.9912    2.7236   -0.2755 H   0  0  0  0  0  0  0  0  0  0  0  0
   39.9682    4.5067   -0.5353 H   0  0  0  0  0  0  0  0  0  0  0  0
   41.6434    0.6552   -0.0654 H   0  0  0  0  0  0  0  0  0  0  0  0
   42.5903    4.3716   -0.5607 H   0  0  0  0  0  0  0  0  0  0  0  0
   45.1308    4.4441   -0.5984 H   0  0  0  0  0  0  0  0  0  0  0  0
   47.0870    2.5946   -0.3682 H   0  0  0  0  0  0  0  0  0  0  0  0
   47.0393   -2.7355    0.3157 H   0  0  0  0  0  0  0  0  0  0  0  0
   45.0625   -4.5222    0.5519 H   0  0  0  0  0  0  0  0  0  0  0  0
   43.3860   -0.6711    0.0837 H   0  0  0  0  0  0  0  0  0  0  0  0
   42.4392   -4.3896    0.5573 H   0  0  0  0  0  0  0  0  0  0  0  0
   56.1300   -3.3758    0.4277 C   0  0  0  0  0  0  0  0  0  0  0  0
   55.1567   -2.4511    0.3127 C   0  0  0  0  0  0  0  0  0  0  0  0
   55.8345   -1.1782    0.1513 C   0  0  0  0  0  0  0  0  0  0  0  0
   55.1568    0.0487   -0.0021 C   0  0  0  0  0  0  0  0  0  0  0  0
   55.8093    1.2844   -0.1546 C   0  0  0  0  0  0  0  0  0  0  0  0
   55.2188    2.5653   -0.3113 C   0  0  0  0  0  0  0  0  0  0  0  0
   56.2350    3.4714   -0.4230 C   0  0  0  0  0  0  0  0  0  0  0  0
   57.4652    2.7619   -0.3374 C   0  0  0  0  0  0  0  0  0  0  0  0
   57.1556    1.4460   -0.1754 N   0  0  0  0  0  0  0  0  0  0  0  0
   58.7360    3.3167   -0.4074 C   0  0  0  0  0  0  0  0  0  0  0  0
   59.9616    2.6751   -0.3318 C   0  0  0  0  0  0  0  0  0  0  0  0
   61.2214    3.3939   -0.4225 C   0  0  0  0  0  0  0  0  0  0  0  0
   62.1947    2.4686   -0.3123 C   0  0  0  0  0  0  0  0  0  0  0  0
   61.5169    1.1952   -0.1555 C   0  0  0  0  0  0  0  0  0  0  0  0
   60.1825    1.3478   -0.1705 N   0  0  0  0  0  0  0  0  0  0  0  0
   62.1945   -0.0324   -0.0074 C   0  0  0  0  0  0  0  0  0  0  0  0
   61.5420   -1.2680    0.1467 C   0  0  0  0  0  0  0  0  0  0  0  0
   62.1325   -2.5490    0.3025 C   0  0  0  0  0  0  0  0  0  0  0  0
   61.1164   -3.4545    0.4188 C   0  0  0  0  0  0  0  0  0  0  0  0
   59.8861   -2.7447    0.3364 C   0  0  0  0  0  0  0  0  0  0  0  0
   60.1957   -1.4290    0.1720 N   0  0  0  0  0  0  0  0  0  0  0  0
   58.6154   -3.2989    0.4105 C   0  0  0  0  0  0  0  0  0  0  0  0
   57.3898   -2.6573    0.3345 C   0  0  0  0  0  0  0  0  0  0  0  0
   57.1688   -1.3307    0.1684 N   0  0  0  0  0  0  0  0  0  0  0  0
   56.0408   -4.4367    0.5618 H   0  0  0  0  0  0  0  0  0  0  0  0
   54.0917   -2.5796    0.3310 H   0  0  0  0  0  0  0  0  0  0  0  0
   54.1633    2.7544   -0.3333 H   0  0  0  0  0  0  0  0  0  0  0  0
   56.1499    4.5327   -0.5530 H   0  0  0  0  0  0  0  0  0  0  0  0
   57.8048    0.6722   -0.0819 H   0  0  0  0  0  0  0  0  0  0  0  0
   58.7708    4.3898   -0.5388 H   0  0  0  0  0  0  0  0  0  0  0  0
   61.3106    4.4554   -0.5520 H   0  0  0  0  0  0  0  0  0  0  0  0
   63.2597    2.5971   -0.3304 H   0  0  0  0  0  0  0  0  0  0  0  0
   63.1880   -2.7384    0.3212 H   0  0  0  0  0  0  0  0  0  0  0  0
   61.2016   -4.5157    0.5496 H   0  0  0  0  0  0  0  0  0  0  0  0
   59.5465   -0.6551    0.0801 H   0  0  0  0  0  0  0  0  0  0  0  0
   58.5805   -4.3717    0.5444 H   0  0  0  0  0  0  0  0  0  0  0  0
   72.2931   -3.3745    0.4597 C   0  0  0  0  0  0  0  0  0  0  0  0
   71.3198   -2.4519    0.3290 C   0  0  0  0  0  0  0  0  0  0  0  0
   71.9973   -1.1779    0.1748 C   0  0  0  0  0  0  0  0  0  0  0  0
   71.3187    0.0467    0.0075 C   0  0  0  0  0  0  0  0  0  0  0  0
   71.9690    1.2831   -0.1489 C   0  0  0  0  0  0  0  0  0  0  0  0
   71.3754    2.5595   -0.3294 C   0  0  0  0  0  0  0  0  0  0  0  0
   72.3889    3.4686   -0.4397 C   0  0  0  0  0  0  0  0  0  0  0  0
   73.6210    2.7657   -0.3277 C   0  0  0  0  0  0  0  0  0  0  0  0
   73.3147    1.4505   -0.1536 N   0  0  0  0  0  0  0  0  0  0  0  0
   74.8907    3.3240   -0.3835 C   0  0  0  0  0  0  0  0  0  0  0  0
   76.1164    2.6873   -0.2725 C   0  0  0  0  0  0  0  0  0  0  0  0
   77.3757    3.4092   -0.3436 C   0  0  0  0  0  0  0  0  0  0  0  0
   78.3489    2.4891   -0.1951 C   0  0  0  0  0  0  0  0  0  0  0  0
   77.6716    1.2156   -0.0370 C   0  0  0  0  0  0  0  0  0  0  0  0
   76.3374    1.3634   -0.0869 N   0  0  0  0  0  0  0  0  0  0  0  0
   78.3499   -0.0075    0.1405 C   0  0  0  0  0  0  0  0  0  0  0  0
   77.6999   -1.2455    0.2851 C   0  0  0  0  0  0  0  0  0  0  0  0
   78.2933   -2.5227    0.4589 C   0  0  0  0  0  0  0  0  0  0  0  0
   77.2798   -3.4339    0.5521 C   0  0  0  0  0  0  0  0  0  0  0  0
   76.0481   -2.7311    0.4382 C   0  0  0  0  0  0  0  0  0  0  0  0
   76.3542   -1.4141    0.2781 N   0  0  0  0  0  0  0  0  0  0  0  0
   74.7784   -3.2909    0.4857 C   0  0  0  0  0  0  0  0  0  0  0  0
   73.5526   -2.6533    0.3850 C   0  0  0  0  0  0  0  0  0  0  0  0
   73.3314   -1.3275    0.2119 N   0  0  0  0  0  0  0  0  0  0  0  0
   72.2041   -4.4353    0.5944 H   0  0  0  0  0  0  0  0  0  0  0  0
   70.2549   -2.5829    0.3313 H   0  0  0  0  0  0  0  0  0  0  0  0
   70.3195    2.7438   -0.3679 H   0  0  0  0  0  0  0  0  0  0  0  0
   72.3009    4.5277   -0.5846 H   0  0  0  0  0  0  0  0  0  0  0  0
   73.9675    0.6824   -0.0423 H   0  0  0  0  0  0  0  0  0  0  0  0
   74.9248    4.3953   -0.5299 H   0  0  0  0  0  0  0  0  0  0  0  0
   77.4644    4.4689   -0.4870 H   0  0  0  0  0  0  0  0  0  0  0  0
   79.4135    2.6213   -0.1889 H   0  0  0  0  0  0  0  0  0  0  0  0
   79.3491   -2.7064    0.5039 H   0  0  0  0  0  0  0  0  0  0  0  0
   77.3677   -4.4943    0.6874 H   0  0  0  0  0  0  0  0  0  0  0  0
   75.7020   -0.6455    0.1665 H   0  0  0  0  0  0  0  0  0  0  0  0
   74.7451   -4.3636    0.6211 H   0  0  0  0  0  0  0  0  0  0  0  0
  1  2  2  0  0  0  0
  2  3  1  0  0  0  0
  3  4  4  0  0  0  0
  4  5  4  0  0  0  0
  5  6  4  0  0  0  0
  6  7  2  0  0  0  0
  7  8  4  0  0  0  0
  5  9  4  0  0  0  0
  8  9  4  0  0  0  0
  8 10  4  0  0  0  0
 10 11  4  0  0  0  0
 11 12  1  0  0  0  0
 12 13  2  0  0  0  0
 13 14  1  0  0  0  0
 11 15  4  0  0  0  0
 14 15  4  0  0  0  0
 14 16  4  0  0  0  0
 16 17  4  0  0  0  0
 17 18  4  0  0  0  0
 18 19  2  0  0  0  0
 19 20  4  0  0  0  0
 17 21  4  0  0  0  0
 20 21  4  0  0  0  0
 20 22  4  0  0  0  0
  1 23  1  0  0  0  0
 22 23  4  0  0  0  0
  3 24  4  0  0  0  0
 23 24  4  0  0  0  0
  1 25  1  0  0  0  0
  2 26  1  0  0  0  0
  6 27  1  0  0  0  0
  7 28  1  0  0  0  0
  9 29  1  0  0  0  0
 10 30  1  0  0  0  0
 12 31  1  0  0  0  0
 13 32  1  0  0  0  0
 16 33  1  0  0  0  0
 18 34  1  0  0  0  0
 19 35  1  0  0  0  0
 21 36  1  0  0  0  0
 22 37  1  0  0  0  0
 38 39  2  0  0  0  0
 39 40  1  0  0  0  0
 40 41  4  0  0  0  0
 41 42  4  0  0  0  0
 42 43  4  0  0  0  0
 43 44  2  0  0  0  0
 44 45  4  0  0  0  0
 42 46  4  0  0  0  0
 45 46  4  0  0  0  0
 45 47  4  0  0  0  0
 47 48  4  0  0  0  0
 48 49  1  0  0  0  0
 49 50  2  0  0  0  0
 50 51  1  0  0  0  0
 48 52  4  0  0  0  0
 51 52  4  0  0  0  0
 51 53  4  0  0  0  0
 53 54  4  0  0  0  0
 54 55  4  0  0  0  0
 55 56  2  0  0  0  0
 56 57  4  0  0  0  0
 54 58  4  0  0  0  0
 57 58  4  0  0  0  0
 57 59  4  0  0  0  0
 38 60  1  0  0  0  0
 59 60  4  0  0  0  0
 40 61  4  0  0  0  0
 60 61  4  0  0  0  0
 38 62  1  0  0  0  0
 39 63  1  0  0  0  0
 43 64  1  0  0  0  0
 44 65  1  0  0  0  0
 46 66  1  0  0  0  0
 47 67  1  0  0  0  0
 49 68  1  0  0  0  0
 50 69  1  0  0  0  0
 53 70  1  0  0  0  0
 55 71  1  0  0  0  0
 56 72  1  0  0  0  0
 58 73  1  0  0  0  0
 59 74  1  0  0  0  0
  4 75  1  0  0  0  0
 75 76  3  0  0  0  0
 76 77  4  0  0  0  0
 77 78  3  0  0  0  0
 78 79  4  0  0  0  0
 79 80  3  0  0  0  0
 81 82  3  0  0  0  0
 82 83  4  0  0  0  0
 83 84  3  0  0  0  0
 84 85  4  0  0  0  0
 85 86  3  0  0  0  0
 87 88  3  0  0  0  0
 88 89  4  0  0  0  0
 89 90  3  0  0  0  0
 90 91  4  0  0  0  0
 91 92  3  0  0  0  0
 93 94  3  0  0  0  0
 94 95  4  0  0  0  0
 95 96  3  0  0  0  0
 96 97  4  0  0  0  0
 41 98  1  0  0  0  0
 97 98  3  0  0  0  0
 99100  2  0  0  0  0
100101  1  0  0  0  0
 80102  1  0  0  0  0
101102  4  0  0  0  0
102103  4  0  0  0  0
103104  4  0  0  0  0
104105  2  0  0  0  0
105106  4  0  0  0  0
103107  4  0  0  0  0
106107  4  0  0  0  0
106108  4  0  0  0  0
108109  4  0  0  0  0
109110  1  0  0  0  0
110111  2  0  0  0  0
111112  1  0  0  0  0
109113  4  0  0  0  0
112113  4  0  0  0  0
 81114  1  0  0  0  0
112114  4  0  0  0  0
114115  4  0  0  0  0
115116  4  0  0  0  0
116117  2  0  0  0  0
117118  4  0  0  0  0
115119  4  0  0  0  0
118119  4  0  0  0  0
118120  4  0  0  0  0
 99121  1  0  0  0  0
120121  4  0  0  0  0
101122  4  0  0  0  0
121122  4  0  0  0  0
 99123  1  0  0  0  0
100124  1  0  0  0  0
104125  1  0  0  0  0
105126  1  0  0  0  0
107127  1  0  0  0  0
108128  1  0  0  0  0
110129  1  0  0  0  0
111130  1  0  0  0  0
116131  1  0  0  0  0
117132  1  0  0  0  0
119133  1  0  0  0  0
120134  1  0  0  0  0
135136  2  0  0  0  0
136137  1  0  0  0  0
 86138  4  0  0  0  0
137138  4  0  0  0  0
138139  4  0  0  0  0
139140  4  0  0  0  0
140141  2  0  0  0  0
141142  4  0  0  0  0
139143  4  0  0  0  0
142143  4  0  0  0  0
142144  4  0  0  0  0
144145  4  0  0  0  0
145146  1  0  0  0  0
146147  2  0  0  0  0
147148  1  0  0  0  0
145149  4  0  0  0  0
148149  4  0  0  0  0
 87150  4  0  0  0  0
148150  4  0  0  0  0
150151  4  0  0  0  0
151152  4  0  0  0  0
152153  2  0  0  0  0
153154  4  0  0  0  0
151155  4  0  0  0  0
154155  4  0  0  0  0
154156  4  0  0  0  0
135157  1  0  0  0  0
156157  4  0  0  0  0
137158  4  0  0  0  0
157158  4  0  0  0  0
135159  1  0  0  0  0
136160  1  0  0  0  0
140161  1  0  0  0  0
141162  1  0  0  0  0
143163  1  0  0  0  0
144164  1  0  0  0  0
146165  1  0  0  0  0
147166  1  0  0  0  0
152167  1  0  0  0  0
153168  1  0  0  0  0
155169  1  0  0  0  0
156170  1  0  0  0  0
171172  2  0  0  0  0
172173  1  0  0  0  0
 92174  1  0  0  0  0
173174  4  0  0  0  0
174175  4  0  0  0  0
175176  4  0  0  0  0
176177  2  0  0  0  0
177178  4  0  0  0  0
175179  4  0  0  0  0
178179  4  0  0  0  0
178180  4  0  0  0  0
180181  4  0  0  0  0
181182  1  0  0  0  0
182183  2  0  0  0  0
183184  1  0  0  0  0
181185  4  0  0  0  0
184185  4  0  0  0  0
 93186  1  0  0  0  0
184186  4  0  0  0  0
186187  4  0  0  0  0
187188  4  0  0  0  0
188189  2  0  0  0  0
189190  4  0  0  0  0
187191  4  0  0  0  0
190191  4  0  0  0  0
190192  4  0  0  0  0
171193  1  0  0  0  0
192193  4  0  0  0  0
173194  4  0  0  0  0
193194  4  0  0  0  0
171195  1  0  0  0  0
172196  1  0  0  0  0
176197  1  0  0  0  0
177198  1  0  0  0  0
179199  1  0  0  0  0
180200  1  0  0  0  0
182201  1  0  0  0  0
183202  1  0  0  0  0
188203  1  0  0  0  0
189204  1  0  0  0  0
191205  1  0  0  0  0
192206  1  0  0  0  0
M  END
