259

Co 52.256216 0.283319 0.422747
C 54.931992 -2.212852 2.482255
C 55.809854 -1.581969 1.667922
C 55.045766 -0.660796 0.883445
C 55.625686 0.271447 0.015816
C 54.889761 1.352457 -0.480320
C 55.489794 2.491716 -1.102858
C 54.490935 3.374722 -1.335056
C 53.282084 2.745086 -0.897354
N 53.544074 1.514479 -0.355449
C 52.025847 3.269407 -1.120829
C 50.865966 2.553950 -0.903178
C 49.572333 2.985232 -1.346294
C 48.716279 1.974541 -1.076879
C 49.483113 0.952048 -0.426386
N 50.797863 1.312122 -0.337513
C 48.926533 -0.181000 0.131673
C 49.639143 -1.032664 0.951305
C 49.034813 -2.070883 1.734567
C 50.012014 -2.582108 2.516045
C 51.217517 -1.887422 2.169532
N 50.975599 -0.937598 1.217717
C 52.461587 -2.223441 2.663651
C 53.634152 -1.706338 2.153047
N 53.720978 -0.740601 1.185292
H 55.123386 -2.964121 3.223575
H 56.876113 -1.684889 1.617206
H 56.539715 2.596930 -1.291280
H 54.545010 4.350226 -1.777868
H 51.950459 4.248924 -1.568144
H 49.374587 3.928752 -1.817171
H 47.662426 1.914458 -1.268706
H 47.870725 -0.358591 -0.004835
H 47.996677 -2.338181 1.691929
H 49.950555 -3.366634 3.245305
H 52.525180 -2.989579 3.421390
Co 115.335063 -0.220869 0.363297
C 112.634156 2.181499 2.498538
C 111.757740 1.533506 1.696183
C 112.531124 0.639595 0.889211
C 111.959397 -0.304104 0.028908
C 112.715206 -1.356112 -0.497045
C 112.136547 -2.501852 -1.127593
C 113.154834 -3.353725 -1.389179
C 114.353310 -2.696981 -0.963046
N 114.067403 -1.481511 -0.399879
C 115.619461 -3.182902 -1.216188
C 116.761841 -2.434984 -1.016362
C 118.057392 -2.822458 -1.493181
C 118.887576 -1.787154 -1.236743
C 118.105227 -0.793989 -0.559754
N 116.804883 -1.195964 -0.442074
C 118.639958 0.351359 -0.005479
C 117.921938 1.172748 0.840010
C 118.512959 2.221461 1.619409
C 117.540098 2.693742 2.430305
C 116.348348 1.965637 2.105505
N 116.596233 1.033153 1.138197
C 115.106494 2.259284 2.631020
C 113.938579 1.713684 2.139536
N 113.859235 0.754276 1.164922
H 112.436886 2.921299 3.249778
H 110.688364 1.609530 1.665392
H 111.087799 -2.629735 -1.307327
H 113.119813 -4.323448 -1.846348
H 115.714200 -4.155489 -1.674738
H 118.273059 -3.755967 -1.975992
H 119.934027 -1.692439 -1.453472
H 119.685889 0.563327 -0.166686
H 119.540886 2.521727 1.554435
H 117.595130 3.472387 3.166335
H 115.037214 3.015435 3.398206
C 56.985753 0.157958 -0.290287
C 58.152739 0.007562 -0.589359
C 67.501585 -0.166864 -0.071090
C 68.635489 -0.025855 0.341209
C 77.943177 0.233202 0.265666
C 79.079593 0.147849 -0.155182
C 88.397394 -0.214348 -0.209307
C 89.540538 -0.197337 0.201320
C 98.875125 0.361016 0.363617
C 100.024508 0.436474 -0.021437
C 109.409753 -0.099567 -0.500949
C 110.588368 -0.226276 -0.240356
Co 62.867993 -0.443214 -1.169669
C 60.287150 -3.575384 -0.148669
C 59.390030 -2.561655 -0.189672
C 60.120711 -1.387565 -0.556806
C 59.510080 -0.167438 -0.873965
C 60.210959 0.824874 -1.569865
C 59.578158 1.919968 -2.236961
C 60.550829 2.571342 -2.917593
C 61.778040 1.900668 -2.614353
N 61.550686 0.819017 -1.805576
C 63.023038 2.379327 -2.970926
C 64.196674 1.877300 -2.446116
C 65.467345 2.523868 -2.570095
C 66.328295 1.837125 -1.781939
C 65.588796 0.744231 -1.229035
N 64.290922 0.778684 -1.633388
C 66.179963 -0.297233 -0.501932
C 65.502902 -1.508087 -0.306279
C 66.151337 -2.721264 0.084940
C 65.213426 -3.696199 0.024316
C 63.987813 -3.059137 -0.349911
N 64.187061 -1.721871 -0.572757
C 62.759072 -3.687198 -0.334957
C 61.565372 -3.000817 -0.437451
N 61.445311 -1.662262 -0.700679
H 60.119758 -4.610920 0.075420
H 58.329428 -2.594629 -0.034533
H 58.525711 2.121174 -2.209559
H 60.466562 3.436501 -3.546042
H 63.075435 3.251409 -3.605062
H 65.652697 3.397016 -3.164930
H 67.373261 2.010715 -1.614826
H 67.192886 -2.802809 0.325561
H 65.318766 -4.743132 0.232659
H 62.726175 -4.746602 -0.130016
Co 73.289660 0.365038 1.257897
C 70.914421 -2.848178 2.485001
C 69.972603 -2.116381 1.842808
C 70.632123 -0.947574 1.349261
C 69.963050 0.125478 0.745016
C 70.575808 1.381537 0.640916
C 69.854412 2.594333 0.406109
C 70.739052 3.606424 0.573921
C 72.005093 2.999910 0.851022
N 71.885243 1.636687 0.904317
C 73.196671 3.694903 0.917488
C 74.427846 3.070792 0.891957
C 75.665259 3.753054 0.665340
C 76.605704 2.795263 0.483606
C 75.945852 1.538749 0.658892
N 74.622156 1.714612 0.911657
C 76.614857 0.307481 0.687344
C 76.002848 -0.825438 1.240496
C 76.724767 -1.988131 1.657116
C 75.840959 -2.772275 2.319667
C 74.574826 -2.109076 2.249988
N 74.693994 -0.909850 1.599209
C 73.383926 -2.672128 2.664267
C 72.152077 -2.147298 2.327228
N 71.956887 -0.971021 1.652488
H 70.803171 -3.784216 2.996906
H 68.922998 -2.310379 1.741761
H 68.804991 2.646247 0.191354
H 70.572033 4.663189 0.496882
H 73.165860 4.773190 0.875140
H 75.777132 4.819167 0.626948
H 77.654621 2.909553 0.293395
H 77.773914 -2.142321 1.496882
H 76.008714 -3.719970 2.793302
H 73.415336 -3.621209 3.177767
Co 83.728424 -0.141573 -1.147583
C 81.144980 -3.425092 -0.945732
C 80.273001 -2.442112 -0.616546
C 81.006322 -1.214883 -0.669506
C 80.406428 0.048200 -0.576444
C 81.084562 1.195096 -1.011040
C 80.434716 2.432912 -1.311852
C 81.380932 3.247132 -1.837525
C 82.612066 2.518475 -1.798811
N 82.408073 1.252792 -1.315139
C 83.847014 3.079310 -2.056111
C 85.034684 2.447415 -1.744264
C 86.306703 3.102139 -1.716131
C 87.187521 2.212958 -1.197925
C 86.456897 1.004287 -0.969516
N 85.145999 1.157921 -1.296831
C 87.062462 -0.209739 -0.618141
C 86.378629 -1.422273 -0.778936
C 87.023955 -2.697762 -0.812907
C 86.068279 -3.605382 -1.125044
C 84.836996 -2.882540 -1.222286
N 85.048757 -1.542068 -1.034263
C 83.598186 -3.483231 -1.326229
C 82.415503 -2.795699 -1.138825
N 82.310722 -1.439310 -0.980576
H 80.966319 -4.479359 -1.030583
H 79.224852 -2.515733 -0.401783
H 79.387713 2.618408 -1.174653
H 81.277074 4.252688 -2.196189
H 83.884648 4.097321 -2.413437
H 86.480465 4.112800 -2.030694
H 88.239246 2.330584 -1.023897
H 88.073811 -2.851521 -0.659947
H 86.165809 -4.665763 -1.253993
H 83.555703 -4.554807 -1.450297
Co 94.197056 -0.003515 1.213660
C 91.935950 -3.523200 1.164971
C 90.966426 -2.640157 0.827069
C 91.582177 -1.349796 0.800741
C 90.871809 -0.155792 0.620458
C 91.443188 1.076274 0.965422
C 90.680355 2.270674 1.162063
C 91.532141 3.190197 1.675185
C 92.818908 2.566702 1.733347
N 92.745157 1.266559 1.308876
C 93.985056 3.234286 2.049909
C 95.238184 2.698001 1.830492
C 96.449342 3.458825 1.877779
C 97.428558 2.653194 1.402285
C 96.817859 1.390778 1.123443
N 95.484516 1.424889 1.388858
C 97.535063 0.249915 0.741989
C 96.958359 -1.023519 0.837403
C 97.719296 -2.235163 0.827576
C 96.856902 -3.232790 1.136544
C 95.567448 -2.628510 1.276775
N 95.648401 -1.272092 1.105654
C 94.395272 -3.341287 1.432423
C 93.146968 -2.770520 1.287078
N 92.908828 -1.436483 1.085134
H 91.860719 -4.584984 1.297217
H 89.924326 -2.819340 0.650796
H 89.628741 2.359302 0.971130
H 91.330177 4.202026 1.968441
H 93.916125 4.259137 2.382143
H 96.518408 4.477383 2.206902
H 98.473085 2.862075 1.282474
H 98.775899 -2.288993 0.651872
H 97.054127 -4.282025 1.240344
H 94.458548 -4.410451 1.567824
Co 104.689498 0.431114 -1.059391
C 101.985153 -2.564034 -2.187539
C 101.142027 -1.764208 -1.492891
C 101.919033 -0.650692 -1.041132
C 101.360361 0.478277 -0.428825
C 102.085781 1.670924 -0.322868
C 101.485421 2.935596 -0.031183
C 102.463285 3.863836 -0.153517
C 103.663905 3.150414 -0.465938
N 103.412564 1.809143 -0.587737
C 104.915011 3.731505 -0.494342
C 106.082912 2.997387 -0.541755
C 107.380804 3.552557 -0.307427
C 108.245850 2.511527 -0.275544
C 107.475047 1.335439 -0.541583
N 106.157511 1.638616 -0.696461
C 108.046082 0.075685 -0.758974
C 107.305083 -0.961313 -1.335720
C 107.895223 -2.147651 -1.873432
C 106.897062 -2.837483 -2.473591
C 105.696355 -2.092113 -2.248756
N 105.963990 -0.935884 -1.565172
C 104.435813 -2.559589 -2.561214
C 103.279438 -1.958630 -2.108028
N 103.220530 -0.778120 -1.415630
H 101.773232 -3.487036 -2.691239
H 100.088353 -1.877310 -1.328504
H 100.447274 3.076476 0.195332
H 102.400900 4.926854 -0.024603
H 104.986706 4.801947 -0.374315
H 107.581588 4.596826 -0.166951
H 109.308103 2.522586 -0.128669
H 108.938488 -2.385754 -1.815821
H 106.946865 -3.771649 -2.998380
H 104.352974 -3.492107 -3.098726
