78
 xtb: 6.4.1 (bd6e46d)
Co        6.66882337624900   -0.05288828500751    0.02140686491712
C         9.12081256124686   -3.49337730156054    0.15944826748633
C        10.08527742054695   -2.54511333677517    0.15385841810556
C         9.41146663522816   -1.28378673099857    0.09521024654750
C        10.09196214669699   -0.06463369792403    0.06880902537722
C         9.42060826361066    1.15977704658332    0.04749592522584
C        10.10412606215804    2.41728090841710    0.05102654236651
C         9.14639159658596    3.37228523232147    0.06040522907717
C         7.88942145328476    2.68751231408655    0.05662164499498
N         8.06842571009729    1.32857490590291    0.04798798266185
C         6.67765357459248    3.34343878218148    0.06320639143749
C         5.46293817331824    2.69278438643931    0.03146142575056
C         4.20528605524185    3.38164643062439    0.01443827073995
C         3.24681337232721    2.43046144805298   -0.05047508070252
C         3.92668668018743    1.16791028413546   -0.06748379622419
N         5.28261462132900    1.33788428568565   -0.01389146082410
C         3.26751585620117   -0.04116658332179   -0.13342946398964
C         3.92093788009741   -1.25513031650846   -0.12427672645812
C         3.23493371874022   -2.51359589401861   -0.17011819326665
C         4.18662095126857   -3.47186003086776   -0.10930475379708
C         5.44645412952453   -2.79119838561001   -0.03176744155883
N         5.27459173659246   -1.43452702261395   -0.04765914685172
C         6.65479256598321   -3.44935690262514    0.05004372560491
C         7.86958671350614   -2.80081359908543    0.09849259542476
N         8.05839780356233   -1.44348338660118    0.06927232502962
H         9.22593870794434   -4.56127546165780    0.13212902839678
H        11.15100416678103   -2.66409968926137    0.16721851516429
H        11.17136023464381    2.52827254205880    0.02983229731366
H         9.25899106357844    4.43815002410121    0.00119052190348
H         6.68230957528372    4.42245807429483    0.01735357160206
H         4.09944469547096    4.44927704487415    0.03245546097715
H         2.18097646999865    2.54570029342489   -0.00894697675218
H         2.18794119852906   -0.03788227706310   -0.08254516507294
H         2.16661901334667   -2.62099334117951   -0.16157742380832
H         4.07223344839592   -4.53763054360217   -0.12784406417179
H         6.65238546256218   -4.52843971715786    0.00181491824771
C        11.48914360803952   -0.06800731658999    0.07241817776857
C        12.70852577919775   -0.06594208220365    0.06712600770714
C        14.04527659061647   -0.05846453797624    0.06587366199282
C        15.26905691011502   -0.04697255011428    0.06252982830145
C        16.60563857417341   -0.03031358991816    0.06754194461703
C        17.82490628201785   -0.01223897885746    0.08169908713012
Co       22.62789335353497    0.05414375742351   -0.02826254798717
C        20.14895943800981    3.43629492954548    0.38804970873093
C        19.19473575263182    2.48615637227566    0.25887007390226
C        19.88232224259508    1.23735524046865    0.13314166409561
C        19.22127588936102    0.00661289416633    0.09765162387196
C        19.91607016879463   -1.20443248569120    0.15938345972146
C        19.26525232040979   -2.46912656091096    0.31629740489395
C        20.24720218616629   -3.39353870678388    0.42289742004858
C        21.48631229525887   -2.68831805592741    0.29547039239420
N        21.27098695389809   -1.34323903739277    0.14659640885979
C        22.71202221770480   -3.31728243838876    0.23836385789953
C        23.88626743376987   -2.65431436618602   -0.04921143053469
C        25.13274051149791   -3.32318189397456   -0.28330087026313
C        26.02378831310386   -2.36686361375666   -0.62505419628744
C        25.32503143579781   -1.11617565864575   -0.56053592222288
N        24.01549937674596   -1.30437309401289   -0.21879049011399
C        25.94140593290689    0.10583437255802   -0.73048485964734
C        25.30136758520410    1.30493714998037   -0.49589698036002
C        25.97551913200542    2.57061868514277   -0.48968730374896
C        25.05735008657675    3.49368190767045   -0.12870036493767
C        23.81976792560617    2.79103787238544    0.04590748207821
N        23.98266388235884    1.45110951300398   -0.17006406729626
C        22.62074964783486    3.42085896059620    0.30370623989273
C        21.40905435835966    2.76260467852673    0.30312429228543
N        21.23314447112091    1.41245477242864    0.14988883564291
H        20.03264656339002    4.49547937539575    0.51857930450765
H        18.12781738563927    2.59463009096591    0.27301435396644
H        18.20211979767398   -2.60461070621078    0.36359772674682
H        20.16186565380887   -4.45430020339298    0.56269282268308
H        22.74364754402239   -4.38937254185074    0.36200328190881
H        25.27610454645346   -4.38359063534580   -0.20856617880457
H        27.05893939660999   -2.47048199907488   -0.88559033519684
H        26.98669506051374    0.12305994415781   -0.99646571157319
H        27.01414897500438    2.70565271178327   -0.72119529297178
H        25.17706507258943    4.55259967341228   -0.00589227297016
H        22.62272520501591    4.49087588374157    0.44905031144935
