266
 xtb: 6.4.1 (bd6e46d)
C        57.36295323782299    3.35981054767249    0.65864842388792
C        58.33884538271703    2.44731439810929    0.48529038000661
C        57.66703581973738    1.19472037005732    0.18874830379172
C        58.35484263564586   -0.01019179674630   -0.05487224464465
C        57.72632283836590   -1.24014556519200   -0.30624351943874
C        58.34843402164666   -2.48835789667645   -0.57596813841665
C        57.35861457189841   -3.41017873481322   -0.75936642583422
C        56.10948651610045   -2.74371142513932   -0.61217144476342
N        56.38451985121067   -1.43979079457648   -0.34012272692376
C        54.85127577422973   -3.31573444558355   -0.73133998423790
C        53.62098082688980   -2.68264244265405   -0.61924701698960
C        52.35725029530084   -3.38910183149189   -0.77431556119939
C        51.38947528653622   -2.46770512784818   -0.61411564517957
C        52.06920265659774   -1.20654771111221   -0.36224006658725
N        53.40905125905868   -1.37632311133099   -0.37079810382662
C        51.40054522128919   -0.00820227663814   -0.14731027840897
C        52.00542066111760    1.21504380965553    0.09796251841856
C        51.37976857447503    2.47289129088806    0.33255776465677
C        52.36565055776767    3.39292013399223    0.53414786825606
C        53.61872448114323    2.72184621426485    0.42667514263143
N        53.34823352569740    1.41422505552563    0.16264691818307
C        54.87685882402075    3.28704696141984    0.57077328911128
C        56.10678060683590    2.65439317016072    0.46898357834610
N        56.33198365314591    1.34620045561177    0.19125331214803
H        57.45500053984546    4.41733362453512    0.89411596055881
H        59.40603031564734    2.57903718369250    0.55813445209129
H        59.40308914686262   -2.63338568071173   -0.63357625286666
H        57.46437172901525   -4.43929976516610   -0.98156085139478
H        55.70102134344023   -0.68634513707302   -0.18949585861055
H        54.82236677861459   -4.35719025216692   -0.94403897563771
H        52.25899093654834   -4.41629824374320   -0.97896925800094
H        50.31958205037778   -2.56359550481598   -0.65779784344574
H        50.32020411606690   -0.00503662972508   -0.17386246408551
H        50.32344325647462    2.66219848431314    0.34220515243008
H        52.25692526887842    4.46228657193198    0.73821286849673
H        54.03052279498884    0.69872087670478    0.02794873507313
H        54.90730529292919    4.36381505060690    0.79086186255826
C       118.63218194177000   -3.47357743659554    0.02456774961472
C       117.66602263412128   -2.53463767999332    0.01445846692795
C       118.35189207601712   -1.25496295949013    0.00781442788808
C       117.67731497479934   -0.01939445107463   -0.01306503958158
C       118.31506109490509    1.23063663185363   -0.04967839893809
C       117.70005792474730    2.51150283031339   -0.05107527587257
C       118.69526371102612    3.44512615342670   -0.08206571772613
C       119.94009912630143    2.75502197308024   -0.09556228730354
N       119.65791267614233    1.42127629370182   -0.07556502614664
C       121.20224710469027    3.32940267721512   -0.11784119867496
C       122.42614793450674    2.67535747281277   -0.11250120919044
C       123.69696208663218    3.38554274767436   -0.13248332284159
C       124.65569388705481    2.44124126358295   -0.11552411755402
C       123.96300900891868    1.16213787906709   -0.08519841340315
N       122.62572630981391    1.33889130293141   -0.08462416848139
C       124.62118537183811   -0.06118227896523   -0.06129095716301
C       124.00746635145798   -1.30378236887856   -0.03115931018310
C       124.62495008955470   -2.58713537498152   -0.01321328764590
C       123.63318643259778   -3.52247016749881    0.01091434137734
C       122.38408124464236   -2.83549868624820    0.00930070383494
N       122.66230413699304   -1.50786024614146   -0.01582642109818
C       121.12134162231231   -3.40900315776318    0.02572547095687
C       119.89653414007563   -2.75726653592912    0.02128704841047
N       119.68548915314162   -1.42141483196251    0.00907568125339
H       118.54391808973082   -4.52828358091314    0.03019331164659
H       116.60534058648199   -2.64676800265270   -0.00232684028967
H       116.63645260404876    2.69198110449441   -0.01968613859197
H       118.57940668710611    4.52653125111127   -0.09025735231159
H       120.33552290034267    0.68845411971015   -0.07178081658228
H       121.22474114711859    4.42928442420008   -0.13616886597920
H       123.79053658631452    4.47744511424338   -0.15447845444220
H       125.71776598647952    2.58504507714171   -0.12000436869118
H       125.70127885866303   -0.01598197546328   -0.06664578644081
H       125.68892562628520   -2.72927081506605   -0.01819562400727
H       123.74991293347134   -4.56602710389391    0.02895290232662
H       121.98598610620243   -0.73238487084736   -0.02251053712564
H       121.09678684173647   -4.47094741522158    0.04110636707704
C        59.75541114857231    0.01180593869737   -0.04430880113002
C        60.96890649161416    0.03350719076130   -0.03873982847365
C        70.80020113293907    0.01014078783172    0.02807105311231
C        72.01383660217428    0.03015657236790    0.03208225348093
C        81.86250696496226    0.03564432300183   -0.05448387934596
C        83.07712911417576    0.05767611459688   -0.04940274587916
C        92.93599073738852    0.02738874205869    0.03949602423061
C        94.15041100500595    0.05035726845812    0.05030856518639
C       104.01023448449952    0.00934037032726    0.12969639829861
C       105.22456367616672    0.02370208348089    0.11019002007865
C       115.06321448178144   -0.04445939828211    0.01774290225425
C       116.27646511255651   -0.03055389118244    0.00236749090594
C        63.34874548847451   -3.26053880575842    0.94022086030361
C        62.37476618939462   -2.36305858381388    0.69280955637728
C        63.04920174180604   -1.13674777672908    0.30944997210285
C        62.36866296355301    0.04806862086320   -0.03315527720634
C        63.01688083262143    1.24681430695202   -0.37236779509360
C        62.42401443441535    2.47738326058291   -0.75854951802290
C        63.43663882403229    3.36141359724387   -0.99942184332507
C        64.66884195530422    2.68794673928010   -0.76930614372563
N        64.36274818220193    1.41539804578382   -0.39393143595241
C        65.93755304839254    3.23349893694585   -0.91039449827328
C        67.16452430777446    2.61853833994188   -0.71996833482740
C        68.42356749359590    3.31635910845202   -0.91981534343417
C        69.39746312354070    2.42197441411961   -0.66099413244260
C        68.72155833653093    1.18810731827614   -0.30448191019115
N        67.38661333563113    1.33487837487124   -0.34862539596686
C        69.40093007374480   -0.00238794052439    0.01985943817089
C        68.75317902147012   -1.20828957243063    0.33299478612892
C        69.34749118950157   -2.44607689910359    0.69328604422407
C        68.33550396376974   -3.33217847619198    0.92905997132765
C        67.10250340895803   -2.65277876752137    0.72151514008717
N        67.40755010009609   -1.37583686273382    0.36101258082276
C        65.83376546204009   -3.19349002613528    0.87754476781279
C        64.60695867588184   -2.57087133765162    0.71061080603546
N        64.38446148525145   -1.28912443507777    0.33445400830838
H        63.25441515156336   -4.27892218091838    1.25009051970640
H        61.30720200794978   -2.47017461096982    0.76681562796236
H        61.37277927692853    2.65499249489337   -0.84995348287583
H        63.35486504812926    4.38884723963027   -1.31171370217156
H        65.01665442713683    0.67690542500843   -0.16494419312042
H        65.97529605971403    4.27220812134836   -1.21455304317098
H        68.51814215259385    4.34053990323351   -1.21910862512331
H        70.46566730604484    2.53812552022003   -0.70997576414078
H        70.39897784859383   -2.62387596629879    0.77219750966038
H        68.41784887827166   -4.36187443952791    1.22438114611757
H        66.75232599571208   -0.63075413956743    0.14706138273718
H        65.79490071846928   -4.23097038169111    1.17638543784189
C        74.40678123737085   -3.25052259396137   -0.97157797817241
C        73.42799470591854   -2.36813340147277   -0.69071211011963
C        74.09717123406509   -1.13628931853657   -0.31588625575750
C        73.41290145712972    0.04528729975253    0.03050162324343
C        74.05941065008734    1.24445689853546    0.37099975416658
C        73.46668432920360    2.47344168584327    0.76169894705356
C        74.48036521633981    3.35128871873053    1.02096064386006
C        75.71244003953588    2.67532121940665    0.79712061196852
N        75.40564614488751    1.41001453226464    0.40358005564700
C        76.98159903223576    3.21075047259285    0.97066106783029
C        78.21040195055627    2.59640033719869    0.78960202009047
C        79.46452008674231    3.28277747333222    1.04917598121416
C        80.44306634235926    2.39802058666330    0.77569345091933
C        79.77678384934984    1.18415333428274    0.34408419900756
N        78.44100374320723    1.33010180135345    0.37010772687347
C        80.46426768920166    0.01858336102645   -0.05121574570435
C        79.81449579521335   -1.16545828243348   -0.44050304330831
C        80.40211381303197   -2.37619896733188   -0.89010471023410
C        79.38755936067727   -3.25432209720828   -1.14402718910050
C        78.15869807067611   -2.59573874165006   -0.86057224667958
N        78.46893590777793   -1.33607499331649   -0.44376758778848
C        76.89095110951874   -3.14550898832641   -0.99287821376918
C        75.66197426321669   -2.54678324249079   -0.76846176761684
N        75.43281550151406   -1.27163162983405   -0.36972576575225
H        74.32015852007174   -4.28240841118494   -1.28353411316320
H        72.36177709748293   -2.50435731926291   -0.73232406636931
H        72.41369733747702    2.63895477004625    0.84395384503485
H        74.39681805433631    4.36244314568100    1.34185676351897
H        76.05561871897883    0.65468744390094    0.17156415434640
H        77.01596071926315    4.23000010171115    1.29895511608439
H        79.55016238021958    4.28220733321977    1.39521713633296
H        81.50747661891518    2.49881138986254    0.86235760312240
H        81.45238993749115   -2.55390382545505   -1.01082638930306
H        79.46876411479644   -4.27781627857826   -1.49317946091584
H        77.82161515116270   -0.61673738755170   -0.16943375357699
H        76.85825042663377   -4.18690698598303   -1.31980448097405
C        85.47708801961888   -3.37249937218889   -0.02625513925974
C        84.49763928068974   -2.44771760530883    0.00115180528208
C        85.16286316835063   -1.15904579431322   -0.02835445437821
C        84.47528148915005    0.07194533823627   -0.03905100080946
C        85.12706587910712    1.31707050108682   -0.03548575546267
C        84.54279965716775    2.60938063744107   -0.07076374531189
C        85.55946863115440    3.52015105570735   -0.02571762443200
C        86.78658190305008    2.80229220636529    0.03075281825533
N        86.47338681970228    1.47928924333273    0.01585031568344
C        88.05518305847733    3.36221238578147    0.10266457769160
C        89.28342944295844    2.72174100902114    0.13510235880601
C        90.53562137641624    3.45132220345414    0.24044333745295
C        91.51485235322829    2.52593064785645    0.22438954950684
C        90.85067398889954    1.24242897787960    0.10182763969617
N        89.51552938619916    1.39051692142507    0.06297503895641
C        91.53795333286961    0.01403455284486    0.02700145957671
C        90.88716973561115   -1.22883190272087   -0.05842002379393
C        91.47371857423195   -2.51661296900214   -0.16223726749270
C        90.45678564344993   -3.42762609173508   -0.19773746200369
C        89.22820081255027   -2.71418075099825   -0.12273141307721
N        89.54046195007858   -1.38976740449630   -0.04637678539261
C        87.95882796254170   -3.27608926742185   -0.11355510383586
C        86.73031713655595   -2.63813464455748   -0.06306262334904
N        86.49818632956053   -1.30139892472410   -0.05389998165148
H        85.39642283287850   -4.45788276492151   -0.01815066350623
H        83.43607836560544   -2.60090632807819    0.05251880466553
H        83.49127734948398    2.79006989995153   -0.13739961912736
H        85.47721335442452    4.57423070106911   -0.03566295517862
H        87.11836563988402    0.67900684012455    0.03386692744938
H        88.08544356378995    4.42780628546423    0.13588510253720
H        90.61590954070051    4.50354543629178    0.31820459011828
H        92.57588693832369    2.64468718621582    0.30159886176998
H        92.52779717109628   -2.72299281800845   -0.21498406268720
H        90.54123823939143   -4.50945350967432   -0.27152694064720
H        88.89566631071352   -0.62531544206271    0.00714938850101
H        87.92885078341706   -4.37217801083609   -0.15008002364187
C        96.53806768682657   -3.22875051544309    1.08725207629401
C        95.56128903206734   -2.33583398572020    0.83413261919712
C        96.23115632016913   -1.11249899677333    0.43562280293053
C        95.54845357771556    0.06471118736530    0.06715614539067
C        96.20416399242559    1.25740723584359   -0.28277130845362
C        95.62410221258128    2.48795803190021   -0.68546186147096
C        96.64446044988077    3.36910715024573   -0.90387684459145
C        97.86922655082627    2.69235331049876   -0.64594577151779
N        97.55128312487942    1.42169199975638   -0.27996422482999
C        99.13979078541657    3.24391814296723   -0.74220802644290
C       100.36640634235644    2.63497772589563   -0.53124106103181
C       101.62137028185623    3.35791475053418   -0.64925366152030
C       102.59796220913350    2.46297451660102   -0.40245082910765
C       101.92923165493612    1.20245274630000   -0.14254962306929
N       100.59438486518049    1.33862086984079   -0.21457825289316
C       102.61204743621821    0.00239701877043    0.14075030498184
C       101.95684935512190   -1.20596425687941    0.43319092393779
C       102.53815364368168   -2.46880274077636    0.71679341693047
C       101.51769425003393   -3.34359606298906    0.95877050855661
C       100.29195774663222   -2.63454285380081    0.82004029322805
N       100.60938527996528   -1.34966752454637    0.49807878789682
C        99.02077798693058   -3.16503091637191    0.99332663504569
C        97.79396297109716   -2.53884250490388    0.84641769815254
N        97.56611576148767   -1.25809629463254    0.46260494022734
H        96.45640166145120   -4.26187698544454    1.40772397256707
H        94.50017360680881   -2.46567655420738    0.91370983960683
H        94.57113530726141    2.64715792088277   -0.80331883159274
H        96.56332473895561    4.37908949305009   -1.21882339701320
H        98.19066177609932    0.65939173688586   -0.03810681527762
H        99.17051588106479    4.27777061677902   -1.02216550322889
H       101.70238191729842    4.39275198574782   -0.88439526748969
H       103.65815927247912    2.60102302656074   -0.37309586464790
H       103.59266521079249   -2.68032279712135    0.72068459869703
H       101.60013200323219   -4.39295328632747    1.20749919903637
H        99.96978460859442   -0.59425657927429    0.31878654919141
H        98.99021643817643   -4.21864556057344    1.27952148377978
C       107.62320316934905   -2.81537657651437    2.03083763840588
C       106.64502418744397   -2.02962241670708    1.54001900426416
C       107.31084108045810   -0.99059670188668    0.77732878038858
C       106.62293282712969    0.02982598203022    0.09014171207889
C       107.26836061341544    1.05599340386585   -0.62046363098768
C       106.67327457383495    2.10541393669822   -1.36777953776176
C       107.68394046148258    2.86703200713174   -1.88095975878886
C       108.91761481947346    2.29487708614975   -1.46256131093726
N       108.61431256944401    1.20414642067800   -0.70650570915209
C       110.18448580432957    2.76695954543551   -1.77701726766602
C       111.41450836362148    2.23562803550398   -1.42345230499607
C       112.66963130577098    2.83571961419870   -1.84367893523717
C       113.64817170524240    2.05609667428091   -1.34360935452704
C       112.97916609287785    0.98985840637232   -0.62150403471360
N       111.64359477096090    1.12278515010841   -0.68565939385781
C       113.66336807766206   -0.05158750568144    0.03443420816841
C       113.01932915858869   -1.10177266896693    0.70805168912278
C       113.61664809109314   -2.17910476904998    1.41332850796250
C       112.60642839585937   -2.94222037876909    1.92540565275861
C       111.37183866425929   -2.34424925970760    1.54703354052562
N       111.67335614297926   -1.24002016388242    0.81122100019280
C       110.10493004972933   -2.79767832895920    1.88851570967075
C       108.87621552935306   -2.24333999058539    1.56813444676506
N       108.64534964361528   -1.13830398641761    0.81837885280415
H       107.54655074767781   -3.69403604502326    2.64470107764808
H       105.58667243080026   -2.10962206778410    1.67230522847178
H       105.61532828077834    2.23530740830213   -1.50231729079639
H       107.58826544340695    3.73821577573092   -2.49711666153421
H       109.26682260998003    0.56639795739988   -0.26466258618096
H       110.20720380338751    3.66231493080101   -2.38555417354028
H       112.74754564250473    3.72858469127865   -2.44024714271011
H       114.70880338055369    2.15868846396472   -1.44620318369686
H       114.67608022565271   -2.32492302394653    1.51763478490406
H       112.70307588077213   -3.83029572275753    2.51312639873714
H       111.01990896184692   -0.58524148670330    0.39265404065111
H       110.08170025581030   -3.69563080071006    2.48952583447072
