160
 xtb: 6.4.1 (bd6e46d)
Co       17.90846834020953   -0.00689957126890   -0.02031729112779
C        20.40493523590996   -3.41628758939513    0.02075124879521
C        21.35743545023055   -2.45652940755050    0.01084839614225
C        20.66747903848651   -1.20287619175472   -0.00082344749208
C        21.33306886700004    0.02485205527628   -0.00843346178926
C        20.64596071753091    1.24063884632201   -0.00741895243663
C        21.31301198396564    2.50660287278861   -0.00146175398315
C        20.34320775031113    3.44892505878661    0.00587412662409
C        19.09514796587071    2.74831374432647    0.00200350185009
N        19.29153977247903    1.39192396475014   -0.00643624329658
C        17.87530917502885    3.38921806257892    0.00083281431470
C        16.66876004435871    2.72436594187904   -0.01412921799882
C        15.40322815260980    3.39814175033889   -0.02657831171110
C        14.45638690290788    2.43528736979901   -0.04699979874502
C        15.15088428225014    1.18068659094978   -0.04453489210238
N        16.50471217155254    1.36705448346229   -0.02484294541169
C        14.50517215881889   -0.03687894394975   -0.05616300877178
C        15.17265489709387   -1.24263816104147   -0.04268625395222
C        14.50086069682059   -2.50954249020325   -0.04337700216942
C        15.46487323753077   -3.45514680966023   -0.01986747463116
C        16.71804051794327   -2.75866674058292   -0.00737508538581
N        16.52956129281121   -1.40463834625395   -0.02128287385654
C        17.93638298554048   -3.40153414042905    0.01154119044298
C        19.14435757308972   -2.73847941280302    0.01275422772564
N        19.31601258209431   -1.37891875082829   -0.00058076385482
H        20.52231390802936   -4.48165434300042    0.04873027794793
H        22.42482101868815   -2.56153579028092    0.02150767716992
H        22.37805819901095    2.63239516903810    0.00806828747418
H        20.44083762921412    4.51746028794611    0.02997501772355
H        17.86564857637739    4.46882655119883    0.02446637812697
H        15.28319453807048    4.46440365052088   -0.01625491723666
H        13.38885489334498    2.53759915960956   -0.07460740656322
H        13.42665903641135   -0.04632331336589   -0.09110599774792
H        13.43560285811103   -2.63065908604315   -0.07209769050470
H        15.36443439761188   -4.52271617216893   -0.00768791595805
H        17.94664658545643   -4.48017891102987    0.03808215468918
Co       65.86709590984370    0.03128536942206   -0.02075752645046
C        63.37972095442371    3.38566199193110    0.64113496045879
C        62.42459406141866    2.44649101824589    0.45612989210257
C        63.11111129975537    1.21459201634389    0.21354136870231
C        62.44252003498581    0.01087853337080   -0.01937831866125
C        63.12649747625485   -1.18635991135945   -0.24046356388086
C        62.45585607845714   -2.42944385890396   -0.47048156990062
C        63.42300595488761   -3.36053836432913   -0.63246493097462
C        64.67303853729678   -2.67567876283680   -0.50179716636316
N        64.48051996933211   -1.34010638906044   -0.26293668586365
C        65.89103334191526   -3.31079117824260   -0.61080165868965
C        67.09946127606246   -2.65891963504568   -0.49756273258972
C        68.36326290192477   -3.32453397516345   -0.62198162603087
C        69.31282094449396   -2.37671903311787   -0.46664030773961
C        68.62166024936256   -1.13972669624534   -0.24632684220190
N        67.26724835142572   -1.32208496457522   -0.26591623921518
C        69.27061843070331    0.05908569138933   -0.04311432045169
C        68.60623342073110    1.24587808154331    0.17992489489077
C        69.28135646036681    2.49131454847679    0.40226249256313
C        68.31982585456009    3.42028177529756    0.59373152469430
C        67.06481083488956    2.73565773300542    0.48450909063007
N        67.24970483327064    1.40498882910514    0.23014820583478
C        65.84822566117144    3.36731571600424    0.62236257665359
C        64.63844678362561    2.71766366455099    0.50713679636803
N        64.46304894338424    1.38374288872805    0.24539100773717
H        63.26581107409788    4.42864821128643    0.87074806978435
H        61.35780891616107    2.55205758591867    0.48952296718501
H        61.39025020926878   -2.54935428267673   -0.48698862250815
H        63.32184688553893   -4.41408358091042   -0.79991521795736
H        65.89725598939432   -4.37636779465514   -0.77662489006682
H        68.48006757896566   -4.37506392436577   -0.79872841118107
H        70.37983941037973   -2.47423857743275   -0.51220845020042
H        70.34896773191596    0.07385444308699   -0.08180339395947
H        70.34694286647473    2.61513912581206    0.38847409822549
H        68.42353369629750    4.46954472955740    0.79592891127141
H        65.84147451835609    4.42381609097338    0.84900834102518
C        22.73037420914494    0.03614636107751   -0.01217177169374
C        23.94979222426108    0.05373914890040   -0.01500813534508
C        25.28673117867626    0.05996478350865   -0.01834626548599
C        26.51077544143029    0.06326600844356   -0.01330278305625
C        27.84753045354509    0.06521127726363   -0.01606864098981
C        29.06725353486694    0.06659426254272   -0.01357606639753
C        38.71940535247247    0.04831307153531   -0.03793777958790
C        39.93921291104139    0.04194172884200   -0.04327696499925
C        41.27577978055781    0.03610464100572   -0.04808156869440
C        42.49998429014833    0.03120810548325   -0.04741740233431
C        43.83655443687293    0.02412317118983   -0.04652969579947
C        45.05636277933908    0.02136931432720   -0.03881230958342
C        54.70818154606981   -0.01867689811254   -0.02850558143825
C        55.92784459457188   -0.01844444714042   -0.03276692671486
C        57.26468830522634   -0.01661978380318   -0.03109183506725
C        58.48867382346594   -0.01301148422115   -0.03616918013025
C        59.82563453776693   -0.00691682115842   -0.03048172932838
C        61.04509411478740    0.00309840855016   -0.02587548779090
Co       33.89329050820690    0.06055511235026   -0.00249902735489
C        31.42042777098059   -3.34439093446584    0.39691869198215
C        30.45993800348643   -2.39937770256783    0.28224053289756
C        31.13972115429771   -1.14924851520894    0.13153325559957
C        30.46396507490051    0.06478948772607   -0.01272743626328
C        31.14354752533712    1.27716006013780   -0.15196545310449
C        30.46767595987886    2.53024040577764   -0.29543537779383
C        31.43114639567420    3.47356160699688   -0.39859168603279
C        32.68334541344861    2.78563742642807   -0.31800726518702
N        32.49637539473699    1.43642755624842   -0.16632594566742
C        33.89874312744521    3.43007589138947   -0.38834145076232
C        35.11219148794012    2.78195860468931   -0.31891688168564
C        36.36664072263490    3.46578737090293   -0.39986139960635
C        37.32701880572004    2.51874121107671   -0.30214724034013
C        36.64708875077103    1.26749005949122   -0.16135880467336
N        35.29490318224011    1.43166431804785   -0.17112897828349
C        37.32284252773463    0.05196135183072   -0.02969413601665
C        36.64319193857075   -1.15994233891997    0.11467785041613
C        37.31911403931137   -2.41295321808505    0.25796274804808
C        36.35580089779754   -3.35448928048615    0.37748078064692
C        35.10355749987887   -2.66577952327899    0.30470249702418
N        35.29052295910287   -1.31759326640592    0.14363050894138
C        33.88811311082713   -3.30847881774466    0.38804174499281
C        32.67473910351409   -2.66068726772479    0.31391016479846
N        32.49200548919320   -1.31203196563394    0.15219559845941
H        31.31204983057968   -4.40499768867444    0.51384251946532
H        29.39328067243310   -2.51298516734591    0.29173522071213
H        29.40161847054708    2.64629399084628   -0.31621562865515
H        31.32638078894968    4.53298395121416   -0.53007075011558
H        33.90040715409695    4.50154639537772   -0.52016593055629
H        36.47518770447329    4.52542188121159   -0.52486220456747
H        38.39356762654732    2.63148109650251   -0.31982669668829
H        38.38505633769839   -2.53070595865111    0.26468807473898
H        36.46064179977255   -4.41556559639244    0.49441203762040
H        33.88599721520361   -4.38178062153062    0.50369210656705
Co       49.88220130566742    0.00398362635103   -0.00119972516432
C        47.39976328376558   -3.39181370436076    0.41241403105557
C        46.44192613874577   -2.44533341318696    0.28794633971827
C        47.12522265303123   -1.19830031729546    0.12789493038187
C        46.45292262578530    0.01588320430253   -0.03057510353985
C        47.13600827461828    1.22609608336606   -0.17324259977488
C        46.46356896451912    2.47985089001817   -0.32654215847186
C        47.42941524527410    3.42167189496821   -0.42075318746167
C        48.67968153409439    2.73204932194000   -0.32589768458534
N        48.48907184880929    1.38315061045299   -0.17532040941978
C        49.89678001527923    3.37467005709555   -0.38105663812745
C        51.10832066941494    2.72415126051619   -0.30125432882796
C        52.36459873872148    3.40606512664252   -0.36841254749832
C        53.32241601689395    2.45639072368555   -0.27127768540856
C        52.63909832235490    1.20556673081350   -0.14418852669724
N        51.28727305711446    1.37261166643272   -0.16029091847829
C        53.31139087251204   -0.01287102776828   -0.02332650846099
C        52.62851253398969   -1.22401863969427    0.10990814149905
C        53.30093997541705   -2.47985351192517    0.24552270944823
C        52.33503342782374   -3.41829326413310    0.36850190015580
C        51.08477332494370   -2.72509972101282    0.30418818886370
N        51.27532134238182   -1.37743372614726    0.14389490776651
C        49.86769937231593   -3.36350487537785    0.39695186855142
C        48.65608604987835   -2.71227780493522    0.32469139228430
N        48.47699670052696   -1.36436663807124    0.15288344300716
H        47.28905369983791   -4.45077788584893    0.54091942074588
H        45.37549656466420   -2.55606279713945    0.30125504804747
H        45.39756484542814    2.59779152116701   -0.35320417939364
H        47.32686868623698    4.48140715121541   -0.55112997177340
H        49.90115670205434    4.44680062012254   -0.50964472297396
H        52.47539185437660    4.46670049916939   -0.48814346392601
H        54.38897644704644    2.56735094298433   -0.28702862133708
H        54.36704155822347   -2.60080635527940    0.24013848556525
H        52.43758617011548   -4.47971354975209    0.47915710689915
H        49.86369725081664   -4.43607378023235    0.51643023941674
