248

C 35.418486 3.508866 0.788578
C 36.308463 2.568607 0.590382
C 35.646962 1.308532 0.289575
C 36.005400 0.002870 0.000894
C 35.180222 -1.128202 -0.084322
C 35.635787 -2.336927 0.496985
C 34.663093 -3.269473 0.296830
C 33.631999 -2.601772 -0.406158
N 33.968724 -1.320912 -0.623072
C 32.474038 -3.327888 -0.737875
C 31.155937 -2.885192 -0.624340
C 29.843591 -3.487326 -0.721319
C 28.921963 -2.540678 -0.515234
C 29.618849 -1.294848 -0.278503
N 30.939923 -1.574600 -0.358189
C 29.219607 0.007149 -0.010500
C 30.052219 1.143826 0.065408
C 29.618076 2.345815 -0.544732
C 30.613589 3.262204 -0.352776
C 31.627740 2.588960 0.371155
N 31.262543 1.321138 0.609979
C 32.797382 3.295917 0.692654
C 34.112635 2.892392 0.622639
N 34.302257 1.581288 0.326237
H 35.585750 4.537410 1.027167
H 37.378722 2.691944 0.639401
H 36.596308 -2.522629 1.015561
H 34.699975 -4.326083 0.622157
H 33.365439 -0.553502 -1.170591
H 32.562429 -4.363315 -1.116222
H 29.644916 -4.548027 -0.930064
H 27.852554 -2.732612 -0.534468
H 28.144664 0.096419 0.127244
H 28.664422 2.537373 -1.073530
H 30.599168 4.312432 -0.699218
H 31.855868 0.563695 1.181975
H 32.728874 4.353322 1.049370
C 111.276004 -3.494757 0.824948
C 110.386026 -2.556607 0.616998
C 111.047527 -1.299724 0.303120
C 110.689089 0.002870 0.000894
C 111.514267 1.132995 -0.096065
C 111.058702 2.347692 0.472657
C 112.031396 3.278109 0.262828
C 113.062490 2.603143 -0.433187
N 112.725765 1.320100 -0.636787
C 114.220451 3.325774 -0.772428
C 115.538552 2.884281 -0.654301
C 116.850898 3.485376 -0.757529
C 117.772526 2.540919 -0.541623
C 117.075640 1.297615 -0.291966
N 115.754566 1.576524 -0.374553
C 117.474882 -0.001528 -0.010455
C 116.642270 -1.137355 0.077255
C 117.076413 -2.345616 -0.520369
C 116.080900 -3.259962 -0.318906
C 115.066749 -2.579236 0.397994
N 115.431946 -1.309002 0.623637
C 113.897107 -3.282816 0.726818
C 112.581854 -2.880040 0.652615
N 112.392232 -1.572085 0.342612
H 111.108739 -4.520767 1.074207
H 109.315767 -2.679428 0.667295
H 110.098181 2.538770 0.989277
H 111.994514 4.338041 0.577164
H 113.329050 0.547044 -1.176306
H 114.132060 4.357216 -1.161508
H 117.049573 4.543852 -0.977279
H 118.841935 2.732643 -0.562849
H 118.549825 -0.089363 0.128209
H 118.030067 -2.542656 -1.047149
H 116.095321 -4.313732 -0.654421
H 114.838621 -0.545659 1.187736
H 113.965615 -4.336459 1.094497
C 38.922157 0.014670 0.005178
C 40.137690 -0.010674 -0.005301
C 41.559207 -0.032097 -0.009477
C 42.767768 -0.034308 -0.009372
C 44.188844 -0.015348 -0.009999
C 45.399986 0.014670 0.005178
C 54.514883 0.014670 0.005178
C 55.730416 -0.010674 -0.005301
C 57.151933 -0.032097 -0.009477
C 58.360495 -0.034308 -0.009372
C 59.781570 -0.015348 -0.009999
C 60.992712 0.014670 0.005178
C 70.107610 0.014670 0.005178
C 71.323143 -0.010674 -0.005301
C 72.744660 -0.032097 -0.009477
C 73.953221 -0.034308 -0.009372
C 75.374297 -0.015348 -0.009999
C 76.585439 0.014670 0.005178
C 85.700336 0.014670 0.005178
C 86.915869 -0.010674 -0.005301
C 88.337386 -0.032097 -0.009477
C 89.545948 -0.034308 -0.009372
C 90.967023 -0.015348 -0.009999
C 92.178165 0.014670 0.005178
C 101.293063 0.014670 0.005178
C 102.508596 -0.010674 -0.005301
C 103.930113 -0.032097 -0.009477
C 105.138674 -0.034308 -0.009372
C 106.559750 -0.015348 -0.009999
C 107.770892 0.014670 0.005178
C 47.163519 -3.593804 0.000353
C 46.288969 -2.598899 -0.009949
C 46.960433 -1.320116 0.003240
C 46.563402 -0.004531 -0.001538
C 47.374595 1.139793 -0.155665
C 46.895569 2.192309 -0.967730
C 47.882654 3.135062 -0.959199
C 48.929925 2.633267 -0.146396
N 48.591072 1.426899 0.326350
C 50.090303 3.411250 0.007954
C 51.411292 2.953377 -0.021439
C 52.723861 3.581510 -0.082567
C 53.637974 2.626446 -0.085150
C 52.964427 1.339572 -0.025961
N 51.652369 1.628171 0.008829
C 53.366711 -0.004531 -0.001538
C 52.534557 -1.118320 0.180743
C 52.974515 -2.149977 1.044054
C 51.976333 -3.073317 1.048675
C 50.953417 -2.593380 0.195245
N 51.320594 -1.412133 -0.315263
C 49.796508 -3.368787 0.038177
C 48.475733 -2.949309 0.021491
N 48.299342 -1.611106 0.022392
H 46.995000 -4.655971 -0.005050
H 45.201141 -2.784935 -0.026976
H 45.931491 2.267680 -1.502046
H 47.844507 4.106176 -1.491641
H 49.198751 0.789800 1.014979
H 50.035203 4.497512 0.152070
H 52.942288 4.649502 -0.120897
H 54.714289 2.772489 -0.124777
H 53.928524 -2.214389 1.601602
H 52.001751 -4.018635 1.623995
H 50.733518 -0.792676 -1.038913
H 49.857226 -4.480527 -0.075952
C 62.756246 -3.593804 0.000353
C 61.881696 -2.598899 -0.009949
C 62.553160 -1.320116 0.003240
C 62.156129 -0.004531 -0.001538
C 62.967321 1.139793 -0.155665
C 62.488295 2.192309 -0.967730
C 63.475381 3.135062 -0.959199
C 64.522652 2.633267 -0.146396
N 64.183799 1.426899 0.326350
C 65.683029 3.411250 0.007954
C 67.004018 2.953377 -0.021439
C 68.316588 3.581510 -0.082567
C 69.230700 2.626446 -0.085150
C 68.557154 1.339572 -0.025961
N 67.245096 1.628171 0.008829
C 68.959437 -0.004531 -0.001538
C 68.127283 -1.118320 0.180743
C 68.567241 -2.149977 1.044054
C 67.569059 -3.073317 1.048675
C 66.546144 -2.593380 0.195245
N 66.913321 -1.412133 -0.315263
C 65.389234 -3.368787 0.038177
C 64.068459 -2.949309 0.021491
N 63.892068 -1.611106 0.022392
H 62.587727 -4.655971 -0.005050
H 60.793868 -2.784935 -0.026976
H 61.524218 2.267680 -1.502046
H 63.437234 4.106176 -1.491641
H 64.791477 0.789800 1.014979
H 65.627930 4.497512 0.152070
H 68.535015 4.649502 -0.120897
H 70.307015 2.772489 -0.124777
H 69.521251 -2.214389 1.601602
H 67.594478 -4.018635 1.623995
H 66.326245 -0.792676 -1.038913
H 65.449953 -4.480527 -0.075952
C 78.348973 -3.593804 0.000353
C 77.474423 -2.598899 -0.009949
C 78.145886 -1.320116 0.003240
C 77.748855 -0.004531 -0.001538
C 78.560048 1.139793 -0.155665
C 78.081022 2.192309 -0.967730
C 79.068107 3.135062 -0.959199
C 80.115378 2.633267 -0.146396
N 79.776525 1.426899 0.326350
C 81.275756 3.411250 0.007954
C 82.596745 2.953377 -0.021439
C 83.909315 3.581510 -0.082567
C 84.823427 2.626446 -0.085150
C 84.149880 1.339572 -0.025961
N 82.837822 1.628171 0.008829
C 84.552164 -0.004531 -0.001538
C 83.720010 -1.118320 0.180743
C 84.159968 -2.149977 1.044054
C 83.161786 -3.073317 1.048675
C 82.138870 -2.593380 0.195245
N 82.506047 -1.412133 -0.315263
C 80.981961 -3.368787 0.038177
C 79.661186 -2.949309 0.021491
N 79.484795 -1.611106 0.022392
H 78.180453 -4.655971 -0.005050
H 76.386595 -2.784935 -0.026976
H 77.116944 2.267680 -1.502046
H 79.029960 4.106176 -1.491641
H 80.384204 0.789800 1.014979
H 81.220656 4.497512 0.152070
H 84.127741 4.649502 -0.120897
H 85.899742 2.772489 -0.124777
H 85.113978 -2.214389 1.601602
H 83.187205 -4.018635 1.623995
H 81.918971 -0.792676 -1.038913
H 81.042679 -4.480527 -0.075952
C 93.941699 -3.593804 0.000353
C 93.067149 -2.598899 -0.009949
C 93.738613 -1.320116 0.003240
C 93.341582 -0.004531 -0.001538
C 94.152774 1.139793 -0.155665
C 93.673748 2.192309 -0.967730
C 94.660834 3.135062 -0.959199
C 95.708105 2.633267 -0.146396
N 95.369252 1.426899 0.326350
C 96.868482 3.411250 0.007954
C 98.189471 2.953377 -0.021439
C 99.502041 3.581510 -0.082567
C 100.416154 2.626446 -0.085150
C 99.742607 1.339572 -0.025961
N 98.430549 1.628171 0.008829
C 100.144890 -0.004531 -0.001538
C 99.312736 -1.118320 0.180743
C 99.752695 -2.149977 1.044054
C 98.754512 -3.073317 1.048675
C 97.731597 -2.593380 0.195245
N 98.098774 -1.412133 -0.315263
C 96.574687 -3.368787 0.038177
C 95.253912 -2.949309 0.021491
N 95.077521 -1.611106 0.022392
H 93.773180 -4.655971 -0.005050
H 91.979321 -2.784935 -0.026976
H 92.709671 2.267680 -1.502046
H 94.622687 4.106176 -1.491641
H 95.976930 0.789800 1.014979
H 96.813383 4.497512 0.152070
H 99.720468 4.649502 -0.120897
H 101.492468 2.772489 -0.124777
H 100.706704 -2.214389 1.601602
H 98.779931 -4.018635 1.623995
H 97.511698 -0.792676 -1.038913
H 96.635406 -4.480527 -0.075952
