
  xtb     11202115563D
 xtb: 6.4.1 (bd6e46d)
185224  0     0  0            999 V2000
   34.1065    0.0212    0.0084 Ni  0  0  0  0  0  0  0  0  0  0  0  0
   36.6064   -2.8564    1.8356 C   0  0  0  0  0  0  0  0  0  0  0  0
   37.5566   -2.0206    1.3597 C   0  0  0  0  0  0  0  0  0  0  0  0
   36.8683   -0.9750    0.6640 C   0  0  0  0  0  0  0  0  0  0  0  0
   37.5325    0.0714    0.0189 C   0  0  0  0  0  0  0  0  0  0  0  0
   36.8417    1.1154   -0.6011 C   0  0  0  0  0  0  0  0  0  0  0  0
   37.5030    2.2081   -1.2489 C   0  0  0  0  0  0  0  0  0  0  0  0
   36.5324    3.0473   -1.6748 C   0  0  0  0  0  0  0  0  0  0  0  0
   35.2844    2.4536   -1.2983 C   0  0  0  0  0  0  0  0  0  0  0  0
   35.4887    1.2654   -0.6495 N   0  0  0  0  0  0  0  0  0  0  0  0
   34.0624    3.0327   -1.5719 C   0  0  0  0  0  0  0  0  0  0  0  0
   32.8570    2.4370   -1.2633 C   0  0  0  0  0  0  0  0  0  0  0  0
   31.5871    3.0234   -1.5828 C   0  0  0  0  0  0  0  0  0  0  0  0
   30.6446    2.1406   -1.1875 C   0  0  0  0  0  0  0  0  0  0  0  0
   31.3425    1.0222   -0.6204 C   0  0  0  0  0  0  0  0  0  0  0  0
   32.6930    1.2191   -0.6668 N   0  0  0  0  0  0  0  0  0  0  0  0
   30.7011   -0.0885   -0.1112 C   0  0  0  0  0  0  0  0  0  0  0  0
   31.3740   -1.1447    0.4686 C   0  0  0  0  0  0  0  0  0  0  0  0
   30.7092   -2.2869    1.0276 C   0  0  0  0  0  0  0  0  0  0  0  0
   31.6728   -3.0793    1.5449 C   0  0  0  0  0  0  0  0  0  0  0  0
   32.9227   -2.4212    1.2936 C   0  0  0  0  0  0  0  0  0  0  0  0
   32.7265   -1.2442    0.6289 N   0  0  0  0  0  0  0  0  0  0  0  0
   34.1395   -2.9316    1.6960 C   0  0  0  0  0  0  0  0  0  0  0  0
   35.3445   -2.3160    1.4269 C   0  0  0  0  0  0  0  0  0  0  0  0
   35.5194   -1.1550    0.7222 N   0  0  0  0  0  0  0  0  0  0  0  0
   36.7258   -3.7558    2.4079 H   0  0  0  0  0  0  0  0  0  0  0  0
   38.6219   -2.0771    1.4690 H   0  0  0  0  0  0  0  0  0  0  0  0
   38.5662    2.2947   -1.3575 H   0  0  0  0  0  0  0  0  0  0  0  0
   36.6291    3.9779   -2.1996 H   0  0  0  0  0  0  0  0  0  0  0  0
   34.0498    3.9915   -2.0672 H   0  0  0  0  0  0  0  0  0  0  0  0
   31.4622    3.9801   -2.0518 H   0  0  0  0  0  0  0  0  0  0  0  0
   29.5768    2.2153   -1.2592 H   0  0  0  0  0  0  0  0  0  0  0  0
   29.6236   -0.1271   -0.1568 H   0  0  0  0  0  0  0  0  0  0  0  0
   29.6467   -2.4349    1.0170 H   0  0  0  0  0  0  0  0  0  0  0  0
   31.5743   -4.0206    2.0502 H   0  0  0  0  0  0  0  0  0  0  0  0
   34.1513   -3.8633    2.2406 H   0  0  0  0  0  0  0  0  0  0  0  0
   77.5965    0.0365   -0.0022 Ni  0  0  0  0  0  0  0  0  0  0  0  0
   75.1122    3.0393    1.6350 C   0  0  0  0  0  0  0  0  0  0  0  0
   74.1573    2.1784    1.2168 C   0  0  0  0  0  0  0  0  0  0  0  0
   74.8394    1.0868    0.5890 C   0  0  0  0  0  0  0  0  0  0  0  0
   74.1687    0.0083    0.0065 C   0  0  0  0  0  0  0  0  0  0  0  0
   74.8540   -1.0673   -0.5640 C   0  0  0  0  0  0  0  0  0  0  0  0
   74.1870   -2.1826   -1.1657 C   0  0  0  0  0  0  0  0  0  0  0  0
   75.1533   -3.0415   -1.5609 C   0  0  0  0  0  0  0  0  0  0  0  0
   76.4044   -2.4397   -1.2084 C   0  0  0  0  0  0  0  0  0  0  0  0
   76.2064   -1.2253   -0.6078 N   0  0  0  0  0  0  0  0  0  0  0  0
   77.6226   -3.0401   -1.4513 C   0  0  0  0  0  0  0  0  0  0  0  0
   78.8317   -2.4483   -1.1503 C   0  0  0  0  0  0  0  0  0  0  0  0
   80.0977   -3.0666   -1.4213 C   0  0  0  0  0  0  0  0  0  0  0  0
   81.0468   -2.1844   -1.0405 C   0  0  0  0  0  0  0  0  0  0  0  0
   80.3564   -1.0326   -0.5346 C   0  0  0  0  0  0  0  0  0  0  0  0
   79.0041   -1.2099   -0.6002 N   0  0  0  0  0  0  0  0  0  0  0  0
   81.0060    0.0914   -0.0665 C   0  0  0  0  0  0  0  0  0  0  0  0
   80.3390    1.1889    0.4384 C   0  0  0  0  0  0  0  0  0  0  0  0
   81.0111    2.3542    0.9380 C   0  0  0  0  0  0  0  0  0  0  0  0
   80.0502    3.1931    1.3819 C   0  0  0  0  0  0  0  0  0  0  0  0
   78.7952    2.5381    1.1488 C   0  0  0  0  0  0  0  0  0  0  0  0
   78.9854    1.3182    0.5645 N   0  0  0  0  0  0  0  0  0  0  0  0
   77.5796    3.0875    1.5002 C   0  0  0  0  0  0  0  0  0  0  0  0
   76.3710    2.4660    1.2631 C   0  0  0  0  0  0  0  0  0  0  0  0
   76.1894    1.2630    0.6348 N   0  0  0  0  0  0  0  0  0  0  0  0
   74.9980    3.9749    2.1471 H   0  0  0  0  0  0  0  0  0  0  0  0
   73.0925    2.2472    1.3233 H   0  0  0  0  0  0  0  0  0  0  0  0
   73.1232   -2.2690   -1.2690 H   0  0  0  0  0  0  0  0  0  0  0  0
   75.0519   -3.9915   -2.0487 H   0  0  0  0  0  0  0  0  0  0  0  0
   77.6288   -4.0174   -1.9093 H   0  0  0  0  0  0  0  0  0  0  0  0
   80.2161   -4.0432   -1.8494 H   0  0  0  0  0  0  0  0  0  0  0  0
   82.1144   -2.2791   -1.0868 H   0  0  0  0  0  0  0  0  0  0  0  0
   82.0847    0.1104   -0.0906 H   0  0  0  0  0  0  0  0  0  0  0  0
   82.0759    2.4854    0.9401 H   0  0  0  0  0  0  0  0  0  0  0  0
   80.1540    4.1636    1.8273 H   0  0  0  0  0  0  0  0  0  0  0  0
   77.5724    4.0530    1.9825 H   0  0  0  0  0  0  0  0  0  0  0  0
   38.9345    0.0788    0.0051 C   0  0  0  0  0  0  0  0  0  0  0  0
   40.1467    0.0754   -0.0085 C   0  0  0  0  0  0  0  0  0  0  0  0
   49.8056    0.0286   -0.0322 C   0  0  0  0  0  0  0  0  0  0  0  0
   51.0184    0.0263   -0.0244 C   0  0  0  0  0  0  0  0  0  0  0  0
   60.6758    0.0414   -0.0221 C   0  0  0  0  0  0  0  0  0  0  0  0
   61.8886    0.0382   -0.0296 C   0  0  0  0  0  0  0  0  0  0  0  0
   71.5540    0.0056   -0.0088 C   0  0  0  0  0  0  0  0  0  0  0  0
   72.7663    0.0042   -0.0005 C   0  0  0  0  0  0  0  0  0  0  0  0
   44.9757    0.0481   -0.0463 Ni  0  0  0  0  0  0  0  0  0  0  0  0
   42.5009   -3.3569    0.2777 C   0  0  0  0  0  0  0  0  0  0  0  0
   41.5445   -2.4140    0.1187 C   0  0  0  0  0  0  0  0  0  0  0  0
   42.2212   -1.1535    0.0581 C   0  0  0  0  0  0  0  0  0  0  0  0
   41.5481    0.0687   -0.0225 C   0  0  0  0  0  0  0  0  0  0  0  0
   42.2346    1.2820   -0.1202 C   0  0  0  0  0  0  0  0  0  0  0  0
   41.5722    2.5499   -0.1825 C   0  0  0  0  0  0  0  0  0  0  0  0
   42.5367    3.4792   -0.3700 C   0  0  0  0  0  0  0  0  0  0  0  0
   43.7816    2.7729   -0.4116 C   0  0  0  0  0  0  0  0  0  0  0  0
   43.5836    1.4301   -0.2311 N   0  0  0  0  0  0  0  0  0  0  0  0
   44.9917    3.3858   -0.6626 C   0  0  0  0  0  0  0  0  0  0  0  0
   46.1956    2.7126   -0.6716 C   0  0  0  0  0  0  0  0  0  0  0  0
   47.4476    3.3467   -0.9558 C   0  0  0  0  0  0  0  0  0  0  0  0
   48.4036    2.4052   -0.7868 C   0  0  0  0  0  0  0  0  0  0  0  0
   47.7293    1.2052   -0.3927 C   0  0  0  0  0  0  0  0  0  0  0  0
   46.3814    1.3932   -0.3550 N   0  0  0  0  0  0  0  0  0  0  0  0
   48.4046    0.0328   -0.0400 C   0  0  0  0  0  0  0  0  0  0  0  0
   47.7177   -1.1356    0.3027 C   0  0  0  0  0  0  0  0  0  0  0  0
   48.3800   -2.3450    0.6885 C   0  0  0  0  0  0  0  0  0  0  0  0
   47.4158   -3.2810    0.8398 C   0  0  0  0  0  0  0  0  0  0  0  0
   46.1705   -2.6336    0.5565 C   0  0  0  0  0  0  0  0  0  0  0  0
   46.3686   -1.3125    0.2550 N   0  0  0  0  0  0  0  0  0  0  0  0
   44.9600   -3.2949    0.5412 C   0  0  0  0  0  0  0  0  0  0  0  0
   43.7547   -2.6658    0.3078 C   0  0  0  0  0  0  0  0  0  0  0  0
   43.5699   -1.3188    0.1452 N   0  0  0  0  0  0  0  0  0  0  0  0
   42.3901   -4.4198    0.3693 H   0  0  0  0  0  0  0  0  0  0  0  0
   40.4821   -2.5360    0.0386 H   0  0  0  0  0  0  0  0  0  0  0  0
   40.5130    2.6856   -0.0849 H   0  0  0  0  0  0  0  0  0  0  0  0
   42.4369    4.5423   -0.4724 H   0  0  0  0  0  0  0  0  0  0  0  0
   44.9969    4.4469   -0.8602 H   0  0  0  0  0  0  0  0  0  0  0  0
   47.5575    4.3743   -1.2431 H   0  0  0  0  0  0  0  0  0  0  0  0
   49.4641    2.4884   -0.9201 H   0  0  0  0  0  0  0  0  0  0  0  0
   49.4390   -2.4379    0.8273 H   0  0  0  0  0  0  0  0  0  0  0  0
   47.5159   -4.3126    1.1161 H   0  0  0  0  0  0  0  0  0  0  0  0
   44.9551   -4.3583    0.7258 H   0  0  0  0  0  0  0  0  0  0  0  0
   55.8469    0.0345   -0.0049 Ni  0  0  0  0  0  0  0  0  0  0  0  0
   53.4028   -3.3990   -0.1833 C   0  0  0  0  0  0  0  0  0  0  0  0
   52.4411   -2.4501   -0.2442 C   0  0  0  0  0  0  0  0  0  0  0  0
   53.1038   -1.1881   -0.1097 C   0  0  0  0  0  0  0  0  0  0  0  0
   52.4193    0.0275   -0.0158 C   0  0  0  0  0  0  0  0  0  0  0  0
   53.0984    1.2454    0.0884 C   0  0  0  0  0  0  0  0  0  0  0  0
   52.4297    2.5037    0.2269 C   0  0  0  0  0  0  0  0  0  0  0  0
   53.3884    3.4567    0.1822 C   0  0  0  0  0  0  0  0  0  0  0  0
   54.6366    2.7729    0.0253 C   0  0  0  0  0  0  0  0  0  0  0  0
   54.4462    1.4170    0.0013 N   0  0  0  0  0  0  0  0  0  0  0  0
   55.8403    3.4229   -0.1531 C   0  0  0  0  0  0  0  0  0  0  0  0
   57.0463    2.7645   -0.2779 C   0  0  0  0  0  0  0  0  0  0  0  0
   58.2908    3.4368   -0.5003 C   0  0  0  0  0  0  0  0  0  0  0  0
   59.2529    2.4866   -0.4711 C   0  0  0  0  0  0  0  0  0  0  0  0
   58.5902    1.2424   -0.2208 C   0  0  0  0  0  0  0  0  0  0  0  0
   57.2423    1.4163   -0.1392 N   0  0  0  0  0  0  0  0  0  0  0  0
   59.2748    0.0406   -0.0151 C   0  0  0  0  0  0  0  0  0  0  0  0
   58.5954   -1.1625    0.2003 C   0  0  0  0  0  0  0  0  0  0  0  0
   59.2640   -2.4028    0.4544 C   0  0  0  0  0  0  0  0  0  0  0  0
   58.3051   -3.3555    0.4994 C   0  0  0  0  0  0  0  0  0  0  0  0
   57.0569   -2.6890    0.2804 C   0  0  0  0  0  0  0  0  0  0  0  0
   57.2475   -1.3412    0.1300 N   0  0  0  0  0  0  0  0  0  0  0  0
   55.8531   -3.3529    0.1637 C   0  0  0  0  0  0  0  0  0  0  0  0
   54.6472   -2.7092   -0.0229 C   0  0  0  0  0  0  0  0  0  0  0  0
   54.4516   -1.3539   -0.0106 N   0  0  0  0  0  0  0  0  0  0  0  0
   53.3012   -4.4654   -0.2393 H   0  0  0  0  0  0  0  0  0  0  0  0
   51.3835   -2.5681   -0.3753 H   0  0  0  0  0  0  0  0  0  0  0  0
   51.3707    2.6167    0.3506 H   0  0  0  0  0  0  0  0  0  0  0  0
   53.2822    4.5222    0.2460 H   0  0  0  0  0  0  0  0  0  0  0  0
   55.8382    4.5012   -0.1993 H   0  0  0  0  0  0  0  0  0  0  0  0
   58.3922    4.4933   -0.6552 H   0  0  0  0  0  0  0  0  0  0  0  0
   60.3106    2.5923   -0.6108 H   0  0  0  0  0  0  0  0  0  0  0  0
   60.3231   -2.5041    0.5869 H   0  0  0  0  0  0  0  0  0  0  0  0
   58.4110   -4.4104    0.6621 H   0  0  0  0  0  0  0  0  0  0  0  0
   55.8553   -4.4308    0.2187 H   0  0  0  0  0  0  0  0  0  0  0  0
   66.7215    0.0233   -0.0334 Ni  0  0  0  0  0  0  0  0  0  0  0  0
   64.2513   -3.3408   -0.6781 C   0  0  0  0  0  0  0  0  0  0  0  0
   63.2937   -2.3912   -0.5786 C   0  0  0  0  0  0  0  0  0  0  0  0
   63.9671   -1.1617   -0.2869 C   0  0  0  0  0  0  0  0  0  0  0  0
   63.2899    0.0349   -0.0334 C   0  0  0  0  0  0  0  0  0  0  0  0
   63.9749    1.2278    0.2157 C   0  0  0  0  0  0  0  0  0  0  0  0
   63.3097    2.4631    0.5011 C   0  0  0  0  0  0  0  0  0  0  0  0
   64.2733    3.4074    0.5933 C   0  0  0  0  0  0  0  0  0  0  0  0
   65.5209    2.7399    0.3739 C   0  0  0  0  0  0  0  0  0  0  0  0
   65.3247    1.4005    0.1675 N   0  0  0  0  0  0  0  0  0  0  0  0
   66.7325    3.3978    0.3315 C   0  0  0  0  0  0  0  0  0  0  0  0
   67.9403    2.7555    0.1539 C   0  0  0  0  0  0  0  0  0  0  0  0
   69.1936    3.4453    0.0933 C   0  0  0  0  0  0  0  0  0  0  0  0
   70.1517    2.4962   -0.0072 C   0  0  0  0  0  0  0  0  0  0  0  0
   69.4766    1.2334   -0.0009 C   0  0  0  0  0  0  0  0  0  0  0  0
   68.1272    1.4016    0.0715 N   0  0  0  0  0  0  0  0  0  0  0  0
   70.1521    0.0101   -0.0174 C   0  0  0  0  0  0  0  0  0  0  0  0
   69.4674   -1.2079   -0.0439 C   0  0  0  0  0  0  0  0  0  0  0  0
   70.1327   -2.4758   -0.0366 C   0  0  0  0  0  0  0  0  0  0  0  0
   69.1687   -3.4170   -0.1533 C   0  0  0  0  0  0  0  0  0  0  0  0
   67.9213   -2.7173   -0.2229 C   0  0  0  0  0  0  0  0  0  0  0  0
   68.1176   -1.3653   -0.1313 N   0  0  0  0  0  0  0  0  0  0  0  0
   66.7100   -3.3495   -0.4126 C   0  0  0  0  0  0  0  0  0  0  0  0
   65.5033   -2.6828   -0.4551 C   0  0  0  0  0  0  0  0  0  0  0  0
   65.3158   -1.3432   -0.2410 N   0  0  0  0  0  0  0  0  0  0  0  0
   64.1426   -4.3883   -0.8815 H   0  0  0  0  0  0  0  0  0  0  0  0
   62.2325   -2.4874   -0.6973 H   0  0  0  0  0  0  0  0  0  0  0  0
   62.2493    2.5667    0.6202 H   0  0  0  0  0  0  0  0  0  0  0  0
   64.1714    4.4568    0.7903 H   0  0  0  0  0  0  0  0  0  0  0  0
   66.7361    4.4710    0.4461 H   0  0  0  0  0  0  0  0  0  0  0  0
   69.3028    4.5119    0.1257 H   0  0  0  0  0  0  0  0  0  0  0  0
   71.2144    2.6149   -0.0882 H   0  0  0  0  0  0  0  0  0  0  0  0
   71.1934   -2.6029    0.0554 H   0  0  0  0  0  0  0  0  0  0  0  0
   69.2701   -4.4842   -0.1903 H   0  0  0  0  0  0  0  0  0  0  0  0
   66.7063   -4.4220   -0.5337 H   0  0  0  0  0  0  0  0  0  0  0  0
  2  3  2  0  0  0  0
  3  4  1  0  0  0  0
  4  5  4  0  0  0  0
  5  6  4  0  0  0  0
  6  7  1  0  0  0  0
  7  8  2  0  0  0  0
  8  9  1  0  0  0  0
  1 10  1  0  0  0  0
  6 10  4  0  0  0  0
  9 10  4  0  0  0  0
  9 11  4  0  0  0  0
 11 12  4  0  0  0  0
 12 13  1  0  0  0  0
 13 14  2  0  0  0  0
 14 15  1  0  0  0  0
  1 16  1  0  0  0  0
 12 16  4  0  0  0  0
 15 16  4  0  0  0  0
 15 17  4  0  0  0  0
 17 18  4  0  0  0  0
 18 19  1  0  0  0  0
 19 20  2  0  0  0  0
 20 21  1  0  0  0  0
  1 22  1  0  0  0  0
 18 22  4  0  0  0  0
 21 22  4  0  0  0  0
 21 23  4  0  0  0  0
  2 24  1  0  0  0  0
 23 24  4  0  0  0  0
  1 25  1  0  0  0  0
  4 25  4  0  0  0  0
 24 25  4  0  0  0  0
  2 26  1  0  0  0  0
  3 27  1  0  0  0  0
  7 28  1  0  0  0  0
  8 29  1  0  0  0  0
 11 30  1  0  0  0  0
 13 31  1  0  0  0  0
 14 32  1  0  0  0  0
 17 33  1  0  0  0  0
 19 34  1  0  0  0  0
 20 35  1  0  0  0  0
 23 36  1  0  0  0  0
 38 39  2  0  0  0  0
 39 40  1  0  0  0  0
 40 41  4  0  0  0  0
 41 42  4  0  0  0  0
 42 43  1  0  0  0  0
 43 44  2  0  0  0  0
 44 45  1  0  0  0  0
 37 46  1  0  0  0  0
 42 46  4  0  0  0  0
 45 46  4  0  0  0  0
 45 47  4  0  0  0  0
 47 48  4  0  0  0  0
 48 49  1  0  0  0  0
 49 50  2  0  0  0  0
 50 51  1  0  0  0  0
 37 52  1  0  0  0  0
 48 52  4  0  0  0  0
 51 52  4  0  0  0  0
 51 53  4  0  0  0  0
 53 54  4  0  0  0  0
 54 55  1  0  0  0  0
 55 56  2  0  0  0  0
 56 57  1  0  0  0  0
 37 58  1  0  0  0  0
 54 58  4  0  0  0  0
 57 58  4  0  0  0  0
 57 59  4  0  0  0  0
 38 60  1  0  0  0  0
 59 60  4  0  0  0  0
 37 61  1  0  0  0  0
 40 61  4  0  0  0  0
 60 61  4  0  0  0  0
 38 62  1  0  0  0  0
 39 63  1  0  0  0  0
 43 64  1  0  0  0  0
 44 65  1  0  0  0  0
 47 66  1  0  0  0  0
 49 67  1  0  0  0  0
 50 68  1  0  0  0  0
 53 69  1  0  0  0  0
 55 70  1  0  0  0  0
 56 71  1  0  0  0  0
 59 72  1  0  0  0  0
  5 73  1  0  0  0  0
 73 74  3  0  0  0  0
 75 76  3  0  0  0  0
 77 78  3  0  0  0  0
 41 80  1  0  0  0  0
 79 80  3  0  0  0  0
 82 83  2  0  0  0  0
 83 84  1  0  0  0  0
 74 85  1  0  0  0  0
 84 85  4  0  0  0  0
 85 86  4  0  0  0  0
 86 87  1  0  0  0  0
 87 88  2  0  0  0  0
 88 89  1  0  0  0  0
 81 90  1  0  0  0  0
 86 90  4  0  0  0  0
 89 90  4  0  0  0  0
 89 91  4  0  0  0  0
 91 92  4  0  0  0  0
 92 93  1  0  0  0  0
 93 94  2  0  0  0  0
 94 95  1  0  0  0  0
 81 96  1  0  0  0  0
 92 96  4  0  0  0  0
 95 96  4  0  0  0  0
 75 97  1  0  0  0  0
 95 97  4  0  0  0  0
 97 98  4  0  0  0  0
 98 99  1  0  0  0  0
 99100  2  0  0  0  0
100101  1  0  0  0  0
 81102  1  0  0  0  0
 98102  4  0  0  0  0
101102  4  0  0  0  0
101103  4  0  0  0  0
 82104  1  0  0  0  0
103104  4  0  0  0  0
 81105  1  0  0  0  0
 84105  4  0  0  0  0
104105  4  0  0  0  0
 82106  1  0  0  0  0
 83107  1  0  0  0  0
 87108  1  0  0  0  0
 88109  1  0  0  0  0
 91110  1  0  0  0  0
 93111  1  0  0  0  0
 94112  1  0  0  0  0
 99113  1  0  0  0  0
100114  1  0  0  0  0
103115  1  0  0  0  0
117118  2  0  0  0  0
118119  1  0  0  0  0
 76120  1  0  0  0  0
119120  4  0  0  0  0
120121  4  0  0  0  0
121122  1  0  0  0  0
122123  2  0  0  0  0
123124  1  0  0  0  0
116125  1  0  0  0  0
121125  4  0  0  0  0
124125  4  0  0  0  0
124126  4  0  0  0  0
126127  4  0  0  0  0
127128  1  0  0  0  0
128129  2  0  0  0  0
129130  1  0  0  0  0
116131  1  0  0  0  0
127131  4  0  0  0  0
130131  4  0  0  0  0
 77132  1  0  0  0  0
130132  4  0  0  0  0
132133  4  0  0  0  0
133134  1  0  0  0  0
134135  2  0  0  0  0
135136  1  0  0  0  0
116137  1  0  0  0  0
133137  4  0  0  0  0
136137  4  0  0  0  0
136138  4  0  0  0  0
117139  1  0  0  0  0
138139  4  0  0  0  0
116140  1  0  0  0  0
119140  4  0  0  0  0
139140  4  0  0  0  0
117141  1  0  0  0  0
118142  1  0  0  0  0
122143  1  0  0  0  0
123144  1  0  0  0  0
126145  1  0  0  0  0
128146  1  0  0  0  0
129147  1  0  0  0  0
134148  1  0  0  0  0
135149  1  0  0  0  0
138150  1  0  0  0  0
152153  2  0  0  0  0
153154  1  0  0  0  0
 78155  1  0  0  0  0
154155  4  0  0  0  0
155156  4  0  0  0  0
156157  1  0  0  0  0
157158  2  0  0  0  0
158159  1  0  0  0  0
151160  1  0  0  0  0
156160  4  0  0  0  0
159160  4  0  0  0  0
159161  4  0  0  0  0
161162  4  0  0  0  0
162163  1  0  0  0  0
163164  2  0  0  0  0
164165  1  0  0  0  0
151166  1  0  0  0  0
162166  4  0  0  0  0
165166  4  0  0  0  0
 79167  1  0  0  0  0
165167  4  0  0  0  0
167168  4  0  0  0  0
168169  1  0  0  0  0
169170  2  0  0  0  0
170171  1  0  0  0  0
151172  1  0  0  0  0
168172  4  0  0  0  0
171172  4  0  0  0  0
171173  4  0  0  0  0
152174  1  0  0  0  0
173174  4  0  0  0  0
151175  1  0  0  0  0
154175  4  0  0  0  0
174175  4  0  0  0  0
152176  1  0  0  0  0
153177  1  0  0  0  0
157178  1  0  0  0  0
158179  1  0  0  0  0
161180  1  0  0  0  0
163181  1  0  0  0  0
164182  1  0  0  0  0
169183  1  0  0  0  0
170184  1  0  0  0  0
173185  1  0  0  0  0
M  END
