193

Ni 27.543629 0.041054 -0.012293
C 29.872620 -3.105739 1.310396
C 30.788727 -2.161532 1.260114
C 30.377548 -1.107628 0.338822
C 30.996418 0.016718 -0.007588
C 30.292376 1.236666 -0.371693
C 30.620487 2.196721 -1.219167
C 29.585707 3.213007 -1.236064
C 28.649439 2.836545 -0.389173
N 29.051429 1.603534 0.174644
C 27.388365 3.481544 -0.010021
C 26.293147 2.846762 0.340739
C 25.219522 3.164717 1.309767
C 24.381959 2.167964 1.232601
C 24.820256 1.164280 0.252149
N 25.925194 1.603133 -0.232143
C 24.209422 -0.088991 -0.161399
C 24.873582 -1.193497 -0.415824
C 24.499733 -2.256439 -1.373351
C 25.448481 -3.150194 -1.284332
C 26.434204 -2.712744 -0.301454
N 26.081159 -1.566939 0.195343
C 27.665092 -3.368815 0.144267
C 28.788134 -2.722954 0.411388
N 29.116734 -1.475512 -0.187015
H 29.932882 -4.015520 1.927943
H 31.705055 -2.201481 1.838162
H 31.547852 2.213517 -1.820310
H 29.602606 4.117695 -1.848686
H 27.340642 4.576347 -0.013798
H 25.166700 4.043442 1.934760
H 23.470329 2.132294 1.849925
H 23.111171 -0.086080 -0.260670
H 23.630878 -2.308904 -2.022301
H 25.445635 -4.066503 -1.883091
H 27.629610 -4.464616 0.256192
Ni 84.129361 -0.006322 -0.016726
C 81.800370 2.840470 1.866779
C 80.884263 1.921980 1.642205
C 81.295442 1.057283 0.541391
C 80.676572 0.016718 -0.007588
C 81.380614 -1.114507 -0.591691
C 81.052503 -1.900678 -1.602557
C 82.087283 -2.896188 -1.807698
C 83.023551 -2.683371 -0.905668
N 82.621561 -1.576360 -0.122896
C 84.284625 -3.387512 -0.652754
C 85.379843 -2.828820 -0.190321
C 86.453468 -3.321025 0.702901
C 87.291031 -2.327258 0.811986
C 86.852734 -1.159109 0.034751
N 85.747795 -1.500501 -0.522548
C 87.463568 0.149126 -0.139119
C 86.799408 1.281659 -0.184225
C 87.173257 2.503785 -0.927940
C 86.224509 3.365512 -0.674661
C 85.238785 2.753318 0.210002
N 85.591831 1.535239 0.485612
C 84.007898 3.315312 0.769697
C 82.884856 2.631107 0.912364
N 82.556256 1.516332 0.092930
H 81.740108 3.619894 2.642383
H 79.967935 1.854000 2.217631
H 80.125138 -1.805662 -2.196382
H 82.070384 -3.671522 -2.577518
H 84.332348 -4.462610 -0.859568
H 86.506290 -4.300442 1.154028
H 88.202661 -2.406730 1.425212
H 88.561819 0.164682 -0.237206
H 88.042112 2.675729 -1.555892
H 86.227355 4.376993 -1.093039
H 84.043380 4.371329 1.082966
C 33.891122 0.014683 -0.008700
C 35.099099 0.022137 -0.007005
C 36.517867 0.022834 -0.001868
C 37.733383 0.014683 -0.008700
C 47.241273 0.014683 -0.008700
C 48.449249 0.022137 -0.007005
C 49.868017 0.022834 -0.001868
C 51.083534 0.014683 -0.008700
C 60.591423 0.014683 -0.008700
C 61.799400 0.022137 -0.007005
C 63.218168 0.022834 -0.001868
C 64.433684 0.014683 -0.008700
C 73.941573 0.014683 -0.008700
C 75.149550 0.022137 -0.007005
C 76.568318 0.022834 -0.001868
C 77.783835 0.014683 -0.008700
Ni 42.521964 0.034818 0.003439
C 40.242154 -3.226629 -0.906227
C 39.285944 -2.327279 -1.008253
C 39.678319 -1.164974 -0.205737
C 39.043202 -0.013701 0.006529
C 39.728659 1.260898 0.232758
C 39.393369 2.339498 0.936998
C 40.417910 3.358815 0.846417
C 41.368507 2.861890 0.073052
N 40.991513 1.545285 -0.343091
C 42.615647 3.473592 -0.343813
C 43.717199 2.806335 -0.675585
C 44.710745 3.058319 -1.709755
C 45.604628 2.097460 -1.608271
C 45.224930 1.185576 -0.504294
N 44.130015 1.634895 0.003073
C 45.882137 -0.013701 0.006529
C 45.258726 -1.082883 0.468045
C 45.637438 -2.014999 1.543521
C 44.696770 -2.929145 1.629387
C 43.688468 -2.633366 0.631960
N 44.026243 -1.579988 -0.017335
C 42.436075 -3.340373 0.300767
C 41.322198 -2.743676 -0.046575
N 40.940086 -1.460919 0.371108
H 40.242498 -4.217703 -1.397461
H 38.377410 -2.448973 -1.589401
H 38.468517 2.457850 1.513924
H 40.445205 4.347979 1.303067
H 42.701587 4.570970 -0.405836
H 44.743417 3.864535 -2.436579
H 46.497690 1.984492 -2.242045
H 46.552189 -1.940592 2.153691
H 44.715816 -3.742753 2.337654
H 42.474560 -4.440332 0.359803
Ni 55.872115 0.034818 0.003439
C 53.592304 -3.226629 -0.906227
C 52.636095 -2.327279 -1.008253
C 53.028469 -1.164974 -0.205737
C 52.393353 -0.013701 0.006529
C 53.078810 1.260898 0.232758
C 52.743519 2.339498 0.936998
C 53.768061 3.358815 0.846417
C 54.718658 2.861890 0.073052
N 54.341664 1.545285 -0.343091
C 55.965797 3.473592 -0.343813
C 57.067349 2.806335 -0.675585
C 58.060896 3.058319 -1.709755
C 58.954779 2.097460 -1.608271
C 58.575081 1.185576 -0.504294
N 57.480165 1.634895 0.003073
C 59.232288 -0.013701 0.006529
C 58.608876 -1.082883 0.468045
C 58.987589 -2.014999 1.543521
C 58.046920 -2.929145 1.629387
C 57.038619 -2.633366 0.631960
N 57.376394 -1.579988 -0.017335
C 55.786226 -3.340373 0.300767
C 54.672349 -2.743676 -0.046575
N 54.290237 -1.460919 0.371108
H 53.592649 -4.217703 -1.397461
H 51.727560 -2.448973 -1.589401
H 51.818667 2.457850 1.513924
H 53.795355 4.347979 1.303067
H 56.051737 4.570970 -0.405836
H 58.093568 3.864535 -2.436579
H 59.847840 1.984492 -2.242045
H 59.902339 -1.940592 2.153691
H 58.065967 -3.742753 2.337654
H 55.824710 -4.440332 0.359803
Ni 69.222265 0.034818 0.003439
C 66.942455 -3.226629 -0.906227
C 65.986245 -2.327279 -1.008253
C 66.378619 -1.164974 -0.205737
C 65.743503 -0.013701 0.006529
C 66.428960 1.260898 0.232758
C 66.093670 2.339498 0.936998
C 67.118211 3.358815 0.846417
C 68.068808 2.861890 0.073052
N 67.691814 1.545285 -0.343091
C 69.315948 3.473592 -0.343813
C 70.417500 2.806335 -0.675585
C 71.411046 3.058319 -1.709755
C 72.304929 2.097460 -1.608271
C 71.925231 1.185576 -0.504294
N 70.830316 1.634895 0.003073
C 72.582438 -0.013701 0.006529
C 71.959027 -1.082883 0.468045
C 72.337739 -2.014999 1.543521
C 71.397071 -2.929145 1.629387
C 70.388769 -2.633366 0.631960
N 70.726544 -1.579988 -0.017335
C 69.136376 -3.340373 0.300767
C 68.022499 -2.743676 -0.046575
N 67.640387 -1.460919 0.371108
H 66.942799 -4.217703 -1.397461
H 65.077711 -2.448973 -1.589401
H 65.168818 2.457850 1.513924
H 67.145506 4.347979 1.303067
H 69.401888 4.570970 -0.405836
H 71.443718 3.864535 -2.436579
H 73.197991 1.984492 -2.242045
H 73.252489 -1.940592 2.153691
H 71.416117 -3.742753 2.337654
H 69.174861 -4.440332 0.359803
