
  xtb     11212101403D
 xtb: 6.4.1 (bd6e46d)
148179  0     0  0            999 V2000
   25.6312    0.0168    0.0802 Co  0  0  0  0  0  0  0  0  0  0  0  0
   28.1829   -2.7167    2.0011 C   0  0  0  0  0  0  0  0  0  0  0  0
   29.1146   -1.8810    1.4872 C   0  0  0  0  0  0  0  0  0  0  0  0
   28.4003   -0.8655    0.7752 C   0  0  0  0  0  0  0  0  0  0  0  0
   29.0251    0.2346    0.1810 C   0  0  0  0  0  0  0  0  0  0  0  0
   28.2910    1.3275   -0.2846 C   0  0  0  0  0  0  0  0  0  0  0  0
   28.8945    2.5578   -0.6963 C   0  0  0  0  0  0  0  0  0  0  0  0
   27.8817    3.4238   -0.9292 C   0  0  0  0  0  0  0  0  0  0  0  0
   26.6674    2.6988   -0.7074 C   0  0  0  0  0  0  0  0  0  0  0  0
   26.9312    1.4154   -0.3094 N   0  0  0  0  0  0  0  0  0  0  0  0
   25.4159    3.2192   -0.9646 C   0  0  0  0  0  0  0  0  0  0  0  0
   24.2708    2.4508   -0.9706 C   0  0  0  0  0  0  0  0  0  0  0  0
   23.0032    2.9252   -1.4442 C   0  0  0  0  0  0  0  0  0  0  0  0
   22.1702    1.8612   -1.4450 C   0  0  0  0  0  0  0  0  0  0  0  0
   22.9213    0.7538   -0.9290 C   0  0  0  0  0  0  0  0  0  0  0  0
   24.2054    1.1246   -0.6461 N   0  0  0  0  0  0  0  0  0  0  0  0
   22.3731   -0.4873   -0.6785 C   0  0  0  0  0  0  0  0  0  0  0  0
   23.0484   -1.4749    0.0085 C   0  0  0  0  0  0  0  0  0  0  0  0
   22.4295   -2.6861    0.4631 C   0  0  0  0  0  0  0  0  0  0  0  0
   23.3466   -3.3255    1.2222 C   0  0  0  0  0  0  0  0  0  0  0  0
   24.5343   -2.5229    1.1901 C   0  0  0  0  0  0  0  0  0  0  0  0
   24.3401   -1.3930    0.4465 N   0  0  0  0  0  0  0  0  0  0  0  0
   25.7258   -2.9007    1.7733 C   0  0  0  0  0  0  0  0  0  0  0  0
   26.9105   -2.2255    1.5666 C   0  0  0  0  0  0  0  0  0  0  0  0
   27.0560   -1.0776    0.8329 N   0  0  0  0  0  0  0  0  0  0  0  0
   28.3244   -3.5943    2.6015 H   0  0  0  0  0  0  0  0  0  0  0  0
   30.1813   -1.9127    1.5935 H   0  0  0  0  0  0  0  0  0  0  0  0
   29.9513    2.7169   -0.7796 H   0  0  0  0  0  0  0  0  0  0  0  0
   27.9309    4.4482   -1.2432 H   0  0  0  0  0  0  0  0  0  0  0  0
   25.3416    4.2561   -1.2552 H   0  0  0  0  0  0  0  0  0  0  0  0
   22.8084    3.9349   -1.7502 H   0  0  0  0  0  0  0  0  0  0  0  0
   21.1406    1.8107   -1.7421 H   0  0  0  0  0  0  0  0  0  0  0  0
   21.3468   -0.6648   -0.9614 H   0  0  0  0  0  0  0  0  0  0  0  0
   21.4213   -2.9748    0.2369 H   0  0  0  0  0  0  0  0  0  0  0  0
   23.2572   -4.2574    1.7461 H   0  0  0  0  0  0  0  0  0  0  0  0
   25.7485   -3.8090    2.3562 H   0  0  0  0  0  0  0  0  0  0  0  0
   58.1489    0.0286    0.0714 Co  0  0  0  0  0  0  0  0  0  0  0  0
   55.6174    2.8306    1.9188 C   0  0  0  0  0  0  0  0  0  0  0  0
   54.6794    1.9956    1.4153 C   0  0  0  0  0  0  0  0  0  0  0  0
   55.3866    0.9549    0.7331 C   0  0  0  0  0  0  0  0  0  0  0  0
   54.7531   -0.1552    0.1679 C   0  0  0  0  0  0  0  0  0  0  0  0
   55.4781   -1.2664   -0.2681 C   0  0  0  0  0  0  0  0  0  0  0  0
   54.8645   -2.5015   -0.6490 C   0  0  0  0  0  0  0  0  0  0  0  0
   55.8701   -3.3810   -0.8618 C   0  0  0  0  0  0  0  0  0  0  0  0
   57.0904   -2.6605   -0.6588 C   0  0  0  0  0  0  0  0  0  0  0  0
   56.8371   -1.3659   -0.2910 N   0  0  0  0  0  0  0  0  0  0  0  0
   58.3370   -3.1960   -0.9081 C   0  0  0  0  0  0  0  0  0  0  0  0
   59.4879   -2.4366   -0.9341 C   0  0  0  0  0  0  0  0  0  0  0  0
   60.7499   -2.9293   -1.4039 C   0  0  0  0  0  0  0  0  0  0  0  0
   61.5912   -1.8721   -1.4265 C   0  0  0  0  0  0  0  0  0  0  0  0
   60.8512   -0.7502   -0.9263 C   0  0  0  0  0  0  0  0  0  0  0  0
   59.5648   -1.1054   -0.6338 N   0  0  0  0  0  0  0  0  0  0  0  0
   61.4120    0.4885   -0.6922 C   0  0  0  0  0  0  0  0  0  0  0  0
   60.7472    1.4913   -0.0169 C   0  0  0  0  0  0  0  0  0  0  0  0
   61.3793    2.7005    0.4247 C   0  0  0  0  0  0  0  0  0  0  0  0
   60.4671    3.3608    1.1719 C   0  0  0  0  0  0  0  0  0  0  0  0
   59.2696    2.5728    1.1448 C   0  0  0  0  0  0  0  0  0  0  0  0
   59.4534    1.4302    0.4179 N   0  0  0  0  0  0  0  0  0  0  0  0
   58.0791    2.9759    1.7127 C   0  0  0  0  0  0  0  0  0  0  0  0
   56.8869    2.3133    1.5069 C   0  0  0  0  0  0  0  0  0  0  0  0
   56.7330    1.1523    0.7961 N   0  0  0  0  0  0  0  0  0  0  0  0
   55.4820    3.7230    2.4984 H   0  0  0  0  0  0  0  0  0  0  0  0
   53.6122    2.0440    1.5103 H   0  0  0  0  0  0  0  0  0  0  0  0
   53.8064   -2.6543   -0.7286 H   0  0  0  0  0  0  0  0  0  0  0  0
   55.8123   -4.4122   -1.1513 H   0  0  0  0  0  0  0  0  0  0  0  0
   58.4024   -4.2394   -1.1768 H   0  0  0  0  0  0  0  0  0  0  0  0
   60.9359   -3.9457   -1.6928 H   0  0  0  0  0  0  0  0  0  0  0  0
   62.6200   -1.8351   -1.7285 H   0  0  0  0  0  0  0  0  0  0  0  0
   62.4400    0.6518   -0.9774 H   0  0  0  0  0  0  0  0  0  0  0  0
   62.3919    2.9739    0.1992 H   0  0  0  0  0  0  0  0  0  0  0  0
   60.5657    4.2984    1.6839 H   0  0  0  0  0  0  0  0  0  0  0  0
   58.0641    3.8938    2.2803 H   0  0  0  0  0  0  0  0  0  0  0  0
   30.4256    0.2686    0.1283 C   0  0  0  0  0  0  0  0  0  0  0  0
   31.6370    0.2646    0.0737 C   0  0  0  0  0  0  0  0  0  0  0  0
   41.2821    0.0367   -0.0823 C   0  0  0  0  0  0  0  0  0  0  0  0
   42.4945    0.0152   -0.0791 C   0  0  0  0  0  0  0  0  0  0  0  0
   52.1405   -0.1791    0.0758 C   0  0  0  0  0  0  0  0  0  0  0  0
   53.3523   -0.1813    0.1203 C   0  0  0  0  0  0  0  0  0  0  0  0
   36.4574    0.1427   -0.1119 Co  0  0  0  0  0  0  0  0  0  0  0  0
   33.9151   -3.2197    0.0239 C   0  0  0  0  0  0  0  0  0  0  0  0
   32.9762   -2.2474   -0.0210 C   0  0  0  0  0  0  0  0  0  0  0  0
   33.6821   -1.0023   -0.0119 C   0  0  0  0  0  0  0  0  0  0  0  0
   33.0373    0.2363    0.0101 C   0  0  0  0  0  0  0  0  0  0  0  0
   33.7477    1.4361   -0.0483 C   0  0  0  0  0  0  0  0  0  0  0  0
   33.1121    2.7179   -0.0447 C   0  0  0  0  0  0  0  0  0  0  0  0
   34.0909    3.6320   -0.2317 C   0  0  0  0  0  0  0  0  0  0  0  0
   35.3162    2.8994   -0.3315 C   0  0  0  0  0  0  0  0  0  0  0  0
   35.0977    1.5541   -0.1929 N   0  0  0  0  0  0  0  0  0  0  0  0
   36.5338    3.4956   -0.5775 C   0  0  0  0  0  0  0  0  0  0  0  0
   37.7254    2.8048   -0.6137 C   0  0  0  0  0  0  0  0  0  0  0  0
   38.9885    3.4336   -0.8532 C   0  0  0  0  0  0  0  0  0  0  0  0
   39.9288    2.4725   -0.7089 C   0  0  0  0  0  0  0  0  0  0  0  0
   39.2299    1.2672   -0.3824 C   0  0  0  0  0  0  0  0  0  0  0  0
   37.8827    1.4687   -0.3531 N   0  0  0  0  0  0  0  0  0  0  0  0
   39.8805    0.0654   -0.0960 C   0  0  0  0  0  0  0  0  0  0  0  0
   39.1732   -1.1124    0.1522 C   0  0  0  0  0  0  0  0  0  0  0  0
   39.8144   -2.3613    0.4295 C   0  0  0  0  0  0  0  0  0  0  0  0
   38.8332   -3.2900    0.4918 C   0  0  0  0  0  0  0  0  0  0  0  0
   37.6021   -2.5954    0.2688 C   0  0  0  0  0  0  0  0  0  0  0  0
   37.8195   -1.2552    0.0861 N   0  0  0  0  0  0  0  0  0  0  0  0
   36.3787   -3.2270    0.2111 C   0  0  0  0  0  0  0  0  0  0  0  0
   35.1837   -2.5581    0.0612 C   0  0  0  0  0  0  0  0  0  0  0  0
   35.0302   -1.1973    0.0112 N   0  0  0  0  0  0  0  0  0  0  0  0
   33.7830   -4.2840    0.0374 H   0  0  0  0  0  0  0  0  0  0  0  0
   31.9088   -2.3395   -0.0663 H   0  0  0  0  0  0  0  0  0  0  0  0
   32.0595    2.8715    0.0890 H   0  0  0  0  0  0  0  0  0  0  0  0
   34.0131    4.6999   -0.2964 H   0  0  0  0  0  0  0  0  0  0  0  0
   36.5573    4.5632   -0.7356 H   0  0  0  0  0  0  0  0  0  0  0  0
   39.1166    4.4714   -1.0921 H   0  0  0  0  0  0  0  0  0  0  0  0
   40.9927    2.5456   -0.8196 H   0  0  0  0  0  0  0  0  0  0  0  0
   40.8714   -2.4848    0.5595 H   0  0  0  0  0  0  0  0  0  0  0  0
   38.9134   -4.3443    0.6720 H   0  0  0  0  0  0  0  0  0  0  0  0
   36.3541   -4.3022    0.3044 H   0  0  0  0  0  0  0  0  0  0  0  0
   47.3193   -0.0783   -0.0882 Co  0  0  0  0  0  0  0  0  0  0  0  0
   44.8001   -3.3997   -0.7280 C   0  0  0  0  0  0  0  0  0  0  0  0
   43.8568   -2.4366   -0.6210 C   0  0  0  0  0  0  0  0  0  0  0  0
   44.5511   -1.2194   -0.3309 C   0  0  0  0  0  0  0  0  0  0  0  0
   43.8962   -0.0114   -0.0835 C   0  0  0  0  0  0  0  0  0  0  0  0
   44.5992    1.1746    0.1367 C   0  0  0  0  0  0  0  0  0  0  0  0
   43.9537    2.4278    0.3827 C   0  0  0  0  0  0  0  0  0  0  0  0
   44.9319    3.3607    0.4251 C   0  0  0  0  0  0  0  0  0  0  0  0
   46.1655    2.6649    0.2202 C   0  0  0  0  0  0  0  0  0  0  0  0
   45.9526    1.3198    0.0703 N   0  0  0  0  0  0  0  0  0  0  0  0
   47.3863    3.2994    0.1424 C   0  0  0  0  0  0  0  0  0  0  0  0
   48.5832    2.6314    0.0037 C   0  0  0  0  0  0  0  0  0  0  0  0
   49.8489    3.2964   -0.0601 C   0  0  0  0  0  0  0  0  0  0  0  0
   50.7914    2.3268   -0.0832 C   0  0  0  0  0  0  0  0  0  0  0  0
   50.0905    1.0798   -0.0342 C   0  0  0  0  0  0  0  0  0  0  0  0
   48.7418    1.2703   -0.0087 N   0  0  0  0  0  0  0  0  0  0  0  0
   50.7398   -0.1552    0.0215 C   0  0  0  0  0  0  0  0  0  0  0  0
   50.0334   -1.3587    0.0079 C   0  0  0  0  0  0  0  0  0  0  0  0
   50.6740   -2.6373    0.0548 C   0  0  0  0  0  0  0  0  0  0  0  0
   49.6979   -3.5611   -0.0949 C   0  0  0  0  0  0  0  0  0  0  0  0
   48.4695   -2.8369   -0.2162 C   0  0  0  0  0  0  0  0  0  0  0  0
   48.6833   -1.4866   -0.1261 N   0  0  0  0  0  0  0  0  0  0  0  0
   47.2539   -3.4455   -0.4409 C   0  0  0  0  0  0  0  0  0  0  0  0
   46.0605   -2.7599   -0.5040 C   0  0  0  0  0  0  0  0  0  0  0  0
   45.8986   -1.4163   -0.2890 N   0  0  0  0  0  0  0  0  0  0  0  0
   44.6758   -4.4452   -0.9328 H   0  0  0  0  0  0  0  0  0  0  0  0
   42.7937   -2.5163   -0.7342 H   0  0  0  0  0  0  0  0  0  0  0  0
   42.8960    2.5513    0.5077 H   0  0  0  0  0  0  0  0  0  0  0  0
   44.8480    4.4187    0.5803 H   0  0  0  0  0  0  0  0  0  0  0  0
   47.4070    4.3768    0.2071 H   0  0  0  0  0  0  0  0  0  0  0  0
   49.9769    4.3612   -0.0784 H   0  0  0  0  0  0  0  0  0  0  0  0
   51.8582    2.4216   -0.1372 H   0  0  0  0  0  0  0  0  0  0  0  0
   51.7276   -2.7819    0.1898 H   0  0  0  0  0  0  0  0  0  0  0  0
   49.7795   -4.6303   -0.1217 H   0  0  0  0  0  0  0  0  0  0  0  0
   47.2341   -4.5180   -0.5617 H   0  0  0  0  0  0  0  0  0  0  0  0
  2  3  2  0  0  0  0
  3  4  1  0  0  0  0
  4  5  4  0  0  0  0
  5  6  4  0  0  0  0
  6  7  1  0  0  0  0
  7  8  2  0  0  0  0
  8  9  1  0  0  0  0
  1 10  1  0  0  0  0
  6 10  4  0  0  0  0
  9 10  4  0  0  0  0
  9 11  4  0  0  0  0
 11 12  4  0  0  0  0
 12 13  1  0  0  0  0
 13 14  2  0  0  0  0
 14 15  1  0  0  0  0
  1 16  1  0  0  0  0
 12 16  4  0  0  0  0
 15 16  4  0  0  0  0
 15 17  4  0  0  0  0
 17 18  4  0  0  0  0
 18 19  1  0  0  0  0
 19 20  2  0  0  0  0
 20 21  1  0  0  0  0
  1 22  1  0  0  0  0
 18 22  4  0  0  0  0
 21 22  4  0  0  0  0
 21 23  4  0  0  0  0
  2 24  1  0  0  0  0
 23 24  4  0  0  0  0
  1 25  1  0  0  0  0
  4 25  4  0  0  0  0
 24 25  4  0  0  0  0
  2 26  1  0  0  0  0
  3 27  1  0  0  0  0
  7 28  1  0  0  0  0
  8 29  1  0  0  0  0
 11 30  1  0  0  0  0
 13 31  1  0  0  0  0
 14 32  1  0  0  0  0
 17 33  1  0  0  0  0
 19 34  1  0  0  0  0
 20 35  1  0  0  0  0
 23 36  1  0  0  0  0
 38 39  2  0  0  0  0
 39 40  1  0  0  0  0
 40 41  4  0  0  0  0
 41 42  4  0  0  0  0
 42 43  1  0  0  0  0
 43 44  2  0  0  0  0
 44 45  1  0  0  0  0
 37 46  1  0  0  0  0
 42 46  4  0  0  0  0
 45 46  4  0  0  0  0
 45 47  4  0  0  0  0
 47 48  4  0  0  0  0
 48 49  1  0  0  0  0
 49 50  2  0  0  0  0
 50 51  1  0  0  0  0
 37 52  1  0  0  0  0
 48 52  4  0  0  0  0
 51 52  4  0  0  0  0
 51 53  4  0  0  0  0
 53 54  4  0  0  0  0
 54 55  1  0  0  0  0
 55 56  2  0  0  0  0
 56 57  1  0  0  0  0
 37 58  1  0  0  0  0
 54 58  4  0  0  0  0
 57 58  4  0  0  0  0
 57 59  4  0  0  0  0
 38 60  1  0  0  0  0
 59 60  4  0  0  0  0
 37 61  1  0  0  0  0
 40 61  4  0  0  0  0
 60 61  4  0  0  0  0
 38 62  1  0  0  0  0
 39 63  1  0  0  0  0
 43 64  1  0  0  0  0
 44 65  1  0  0  0  0
 47 66  1  0  0  0  0
 49 67  1  0  0  0  0
 50 68  1  0  0  0  0
 53 69  1  0  0  0  0
 55 70  1  0  0  0  0
 56 71  1  0  0  0  0
 59 72  1  0  0  0  0
  5 73  1  0  0  0  0
 73 74  3  0  0  0  0
 75 76  3  0  0  0  0
 41 78  1  0  0  0  0
 77 78  3  0  0  0  0
 80 81  2  0  0  0  0
 81 82  1  0  0  0  0
 74 83  1  0  0  0  0
 82 83  4  0  0  0  0
 83 84  4  0  0  0  0
 84 85  1  0  0  0  0
 85 86  2  0  0  0  0
 86 87  1  0  0  0  0
 79 88  1  0  0  0  0
 84 88  4  0  0  0  0
 87 88  4  0  0  0  0
 87 89  4  0  0  0  0
 89 90  4  0  0  0  0
 90 91  1  0  0  0  0
 91 92  2  0  0  0  0
 92 93  1  0  0  0  0
 79 94  1  0  0  0  0
 90 94  4  0  0  0  0
 93 94  4  0  0  0  0
 75 95  1  0  0  0  0
 93 95  4  0  0  0  0
 95 96  4  0  0  0  0
 96 97  1  0  0  0  0
 97 98  2  0  0  0  0
 98 99  1  0  0  0  0
 79100  1  0  0  0  0
 96100  4  0  0  0  0
 99100  4  0  0  0  0
 99101  4  0  0  0  0
 80102  1  0  0  0  0
101102  4  0  0  0  0
 79103  1  0  0  0  0
 82103  4  0  0  0  0
102103  4  0  0  0  0
 80104  1  0  0  0  0
 81105  1  0  0  0  0
 85106  1  0  0  0  0
 86107  1  0  0  0  0
 89108  1  0  0  0  0
 91109  1  0  0  0  0
 92110  1  0  0  0  0
 97111  1  0  0  0  0
 98112  1  0  0  0  0
101113  1  0  0  0  0
115116  2  0  0  0  0
116117  1  0  0  0  0
 76118  1  0  0  0  0
117118  4  0  0  0  0
118119  4  0  0  0  0
119120  1  0  0  0  0
120121  2  0  0  0  0
121122  1  0  0  0  0
114123  1  0  0  0  0
119123  4  0  0  0  0
122123  4  0  0  0  0
122124  4  0  0  0  0
124125  4  0  0  0  0
125126  1  0  0  0  0
126127  2  0  0  0  0
127128  1  0  0  0  0
114129  1  0  0  0  0
125129  4  0  0  0  0
128129  4  0  0  0  0
 77130  1  0  0  0  0
128130  4  0  0  0  0
130131  4  0  0  0  0
131132  1  0  0  0  0
132133  2  0  0  0  0
133134  1  0  0  0  0
114135  1  0  0  0  0
131135  4  0  0  0  0
134135  4  0  0  0  0
134136  4  0  0  0  0
115137  1  0  0  0  0
136137  4  0  0  0  0
114138  1  0  0  0  0
117138  4  0  0  0  0
137138  4  0  0  0  0
115139  1  0  0  0  0
116140  1  0  0  0  0
120141  1  0  0  0  0
121142  1  0  0  0  0
124143  1  0  0  0  0
126144  1  0  0  0  0
127145  1  0  0  0  0
132146  1  0  0  0  0
133147  1  0  0  0  0
136148  1  0  0  0  0
M  END
