193

Ni 28.988339 0.003866 -0.009228
C 31.487140 -3.409796 0.034341
C 32.438770 -2.449320 0.024101
C 31.749073 -1.194458 0.008754
C 32.414651 0.034810 -0.000549
C 31.726449 1.251569 -0.001942
C 32.393357 2.518762 0.004563
C 31.424559 3.461926 0.012100
C 30.173939 2.763861 0.007268
N 30.374055 1.409018 -0.000821
C 28.953546 3.406936 0.005373
C 27.746361 2.739553 -0.012799
C 26.478753 3.411278 -0.028341
C 25.532489 2.448016 -0.052878
C 26.226166 1.191836 -0.049194
N 27.577900 1.384055 -0.024918
C 25.579286 -0.027017 -0.063076
C 26.248560 -1.233695 -0.046353
C 25.577795 -2.502266 -0.047588
C 26.541338 -3.448123 -0.019302
C 27.796537 -2.753478 -0.003756
N 27.603581 -1.401248 -0.020307
C 29.015380 -3.399171 0.019821
C 30.224131 -2.734500 0.022540
N 30.399815 -1.376374 0.007977
H 31.606076 -4.475745 0.047067
H 33.506231 -2.554060 0.027015
H 33.458768 2.642715 0.005004
H 31.524214 4.529898 0.019184
H 28.944022 4.486127 0.013653
H 26.357807 4.477270 -0.022358
H 24.464711 2.550396 -0.070739
H 24.500398 -0.037054 -0.083135
H 24.512064 -2.623986 -0.066321
H 26.439762 -4.516112 -0.010428
H 29.024918 -4.478325 0.032188
Ni 82.708294 0.039423 -0.007906
C 80.218037 3.405941 0.593746
C 79.264091 2.464097 0.417296
C 79.950678 1.226060 0.201692
C 79.282031 0.015380 -0.001223
C 79.967086 -1.187310 -0.196420
C 79.297156 -2.437429 -0.393965
C 80.263698 -3.369387 -0.553406
C 81.515929 -2.681231 -0.454539
N 81.319096 -1.344181 -0.232800
C 82.734572 -3.314779 -0.582953
C 83.943193 -2.655202 -0.498160
C 85.208869 -3.314746 -0.644341
C 86.157517 -2.364303 -0.500778
C 85.467234 -1.128530 -0.265014
N 84.115131 -1.319644 -0.268699
C 86.117411 0.070449 -0.055301
C 85.451357 1.255531 0.181834
C 86.125463 2.500919 0.413813
C 85.164244 3.430147 0.604691
C 83.907112 2.749119 0.485710
N 84.096661 1.420652 0.230182
C 82.689754 3.386551 0.607031
C 81.479377 2.736769 0.481532
N 81.300448 1.400763 0.239490
H 80.101691 4.455543 0.781763
H 78.196891 2.570902 0.430122
H 78.231478 -2.558665 -0.404813
H 80.161532 -4.423440 -0.723951
H 82.741383 -4.378938 -0.762753
H 85.327021 -4.364462 -0.831813
H 87.224886 -2.463334 -0.544036
H 87.196332 0.081039 -0.073163
H 87.191619 2.619828 0.424640
H 85.268554 4.478782 0.805892
H 82.682760 4.447431 0.805251
C 33.811825 0.047414 -0.001786
C 35.029311 0.058247 -0.005046
C 36.371207 0.064604 -0.008236
C 37.588844 0.069310 -0.008493
C 47.243868 0.050498 -0.020880
C 48.461630 0.048067 -0.018286
C 49.803073 0.044640 -0.019569
C 51.020846 0.045835 -0.018966
C 60.675509 0.040261 -0.020785
C 61.893278 0.035948 -0.020961
C 63.234721 0.032282 -0.020157
C 64.452477 0.028582 -0.020715
C 74.107564 -0.004577 -0.013826
C 75.325150 -0.003081 -0.011031
C 76.667191 0.000485 -0.009040
C 77.884656 0.006892 -0.004852
Ni 42.416635 0.060396 -0.016654
C 39.939364 -3.349010 0.367524
C 38.980596 -2.401212 0.262221
C 39.661115 -1.149235 0.122627
C 38.985496 0.067764 -0.009876
C 39.665779 1.281696 -0.145206
C 38.990108 2.536424 -0.283409
C 39.952524 3.479882 -0.394478
C 41.207127 2.793754 -0.323026
N 41.016580 1.446191 -0.169455
C 42.423074 3.439474 -0.403312
C 43.636546 2.788157 -0.334042
C 44.893801 3.468098 -0.417606
C 45.852576 2.520546 -0.310100
C 45.172085 1.269517 -0.162309
N 43.822056 1.440061 -0.178166
C 45.847579 0.053431 -0.020974
C 45.167171 -1.159863 0.121046
C 45.842950 -2.413762 0.266290
C 44.880578 -3.357609 0.374020
C 43.625939 -2.672468 0.294271
N 43.816518 -1.324867 0.139939
C 42.410112 -3.319071 0.366016
C 41.196573 -2.668261 0.291417
N 41.011200 -1.319637 0.140729
H 39.828645 -4.409298 0.485894
H 37.913976 -2.512841 0.275584
H 37.923892 2.652597 -0.291841
H 39.845969 4.540482 -0.513950
H 42.424996 4.511747 -0.526503
H 45.004480 4.527772 -0.541460
H 46.919218 2.631822 -0.326554
H 46.909153 -2.529368 0.280188
H 44.987143 -4.417924 0.495929
H 42.408129 -4.391556 0.487309
Ni 55.848164 0.043365 -0.019272
C 53.375860 -3.367311 0.386187
C 52.415720 -2.421609 0.274482
C 53.094446 -1.169765 0.125587
C 52.417121 0.045031 -0.018491
C 53.095733 1.259095 -0.162533
C 52.418181 2.511648 -0.310882
C 53.379205 3.456417 -0.422815
C 54.634811 2.773206 -0.341898
N 54.446161 1.425983 -0.182357
C 55.849807 3.420979 -0.418366
C 57.064255 2.772194 -0.341737
C 58.320504 3.454250 -0.422347
C 59.280640 2.508471 -0.311186
C 58.601903 1.256484 -0.163541
N 57.251640 1.424716 -0.182978
C 59.279225 0.041572 -0.020722
C 58.600585 -1.172574 0.122840
C 59.278104 -2.425247 0.270331
C 58.317066 -3.369940 0.382693
C 57.061492 -2.686570 0.302874
N 57.250163 -1.339331 0.143493
C 55.846517 -3.334211 0.380523
C 54.632083 -2.685353 0.304592
N 54.444695 -1.337983 0.144917
H 53.266720 -4.426909 0.511965
H 51.349252 -2.534751 0.288509
H 51.351809 2.625766 -0.324364
H 53.271043 4.516139 -0.548408
H 55.850229 4.492855 -0.545001
H 58.429653 4.513965 -0.547163
H 60.347126 2.621594 -0.324764
H 60.344457 -2.539540 0.283019
H 58.425189 -4.429717 0.507823
H 55.846101 -4.406054 0.507419
Ni 69.279665 0.010964 -0.020680
C 66.796959 -3.393364 0.373194
C 65.839738 -2.443715 0.270566
C 66.522263 -1.193827 0.122374
C 65.848765 0.023235 -0.020217
C 66.531225 1.235222 -0.163392
C 65.857588 2.489767 -0.312934
C 66.821522 3.432369 -0.417536
C 68.075003 2.745924 -0.330678
N 67.882163 1.398577 -0.176957
C 69.291842 3.391748 -0.391350
C 70.504249 2.739877 -0.307595
C 71.762526 3.420233 -0.368295
C 72.719749 2.471047 -0.261429
C 72.037245 1.218543 -0.137000
N 70.687398 1.390229 -0.163847
C 72.710745 -0.000792 -0.016675
C 72.028455 -1.215365 0.101061
C 72.702067 -2.472686 0.225359
C 71.738096 -3.415478 0.328152
C 70.484630 -2.726373 0.265816
N 70.677346 -1.377812 0.124391
C 69.267654 -3.370078 0.346972
C 68.055305 -2.715788 0.286922
N 67.871989 -1.366903 0.135193
H 66.684579 -4.453058 0.495331
H 64.772943 -2.552959 0.289897
H 64.791583 2.606559 -0.331846
H 66.716762 4.492657 -0.541253
H 69.295618 4.464521 -0.510000
H 71.874949 4.481221 -0.478509
H 73.786531 2.581980 -0.265408
H 73.768096 -2.590752 0.231648
H 71.842900 -4.477408 0.436847
H 69.263995 -4.443059 0.463768
