
  xtb     11212101443D
 xtb: 6.4.1 (bd6e46d)
222269  0     0  0            999 V2000
   42.6265    0.0233    0.0067 Ni  0  0  0  0  0  0  0  0  0  0  0  0
   45.1373   -2.6366    2.1242 C   0  0  0  0  0  0  0  0  0  0  0  0
   46.0844   -1.8514    1.5634 C   0  0  0  0  0  0  0  0  0  0  0  0
   45.3922   -0.8876    0.7615 C   0  0  0  0  0  0  0  0  0  0  0  0
   46.0522    0.0881    0.0099 C   0  0  0  0  0  0  0  0  0  0  0  0
   45.3568    1.0608   -0.7124 C   0  0  0  0  0  0  0  0  0  0  0  0
   46.0130    2.0851   -1.4681 C   0  0  0  0  0  0  0  0  0  0  0  0
   45.0388    2.8762   -1.9710 C   0  0  0  0  0  0  0  0  0  0  0  0
   43.7936    2.3197   -1.5335 C   0  0  0  0  0  0  0  0  0  0  0  0
   44.0031    1.2016   -0.7715 N   0  0  0  0  0  0  0  0  0  0  0  0
   42.5691    2.8659   -1.8591 C   0  0  0  0  0  0  0  0  0  0  0  0
   41.3662    2.2969   -1.4953 C   0  0  0  0  0  0  0  0  0  0  0  0
   40.0937    2.8417   -1.8729 C   0  0  0  0  0  0  0  0  0  0  0  0
   39.1555    1.9932   -1.3998 C   0  0  0  0  0  0  0  0  0  0  0  0
   39.8585    0.9387   -0.7265 C   0  0  0  0  0  0  0  0  0  0  0  0
   41.2077    1.1402   -0.7863 N   0  0  0  0  0  0  0  0  0  0  0  0
   39.2225   -0.1229   -0.1158 C   0  0  0  0  0  0  0  0  0  0  0  0
   39.9001   -1.1111    0.5690 C   0  0  0  0  0  0  0  0  0  0  0  0
   39.2405   -2.1964    1.2371 C   0  0  0  0  0  0  0  0  0  0  0  0
   40.2067   -2.9230    1.8392 C   0  0  0  0  0  0  0  0  0  0  0  0
   41.4531   -2.2833    1.5297 C   0  0  0  0  0  0  0  0  0  0  0  0
   41.2521   -1.1822    0.7468 N   0  0  0  0  0  0  0  0  0  0  0  0
   42.6713   -2.7399    1.9884 C   0  0  0  0  0  0  0  0  0  0  0  0
   43.8735   -2.1480    1.6600 C   0  0  0  0  0  0  0  0  0  0  0  0
   44.0440   -1.0663    0.8379 N   0  0  0  0  0  0  0  0  0  0  0  0
   45.2601   -3.4704    2.7877 H   0  0  0  0  0  0  0  0  0  0  0  0
   47.1497   -1.8913    1.6787 H   0  0  0  0  0  0  0  0  0  0  0  0
   47.0757    2.1627   -1.5887 H   0  0  0  0  0  0  0  0  0  0  0  0
   45.1311    3.7504   -2.5857 H   0  0  0  0  0  0  0  0  0  0  0  0
   42.5526    3.7727   -2.4441 H   0  0  0  0  0  0  0  0  0  0  0  0
   39.9642    3.7489   -2.4309 H   0  0  0  0  0  0  0  0  0  0  0  0
   38.0876    2.0529   -1.4825 H   0  0  0  0  0  0  0  0  0  0  0  0
   38.1457   -0.1745   -0.1629 H   0  0  0  0  0  0  0  0  0  0  0  0
   38.1794   -2.3543    1.2346 H   0  0  0  0  0  0  0  0  0  0  0  0
   40.1121   -3.8087    2.4373 H   0  0  0  0  0  0  0  0  0  0  0  0
   42.6869   -3.6098    2.6270 H   0  0  0  0  0  0  0  0  0  0  0  0
   96.9934    0.0401   -0.0072 Ni  0  0  0  0  0  0  0  0  0  0  0  0
   94.5047    2.8945    1.8712 C   0  0  0  0  0  0  0  0  0  0  0  0
   93.5515    2.0636    1.3927 C   0  0  0  0  0  0  0  0  0  0  0  0
   94.2351    1.0286    0.6768 C   0  0  0  0  0  0  0  0  0  0  0  0
   93.5662   -0.0022    0.0119 C   0  0  0  0  0  0  0  0  0  0  0  0
   94.2527   -1.0239   -0.6486 C   0  0  0  0  0  0  0  0  0  0  0  0
   93.5869   -2.0869   -1.3399 C   0  0  0  0  0  0  0  0  0  0  0  0
   94.5547   -2.9053   -1.8103 C   0  0  0  0  0  0  0  0  0  0  0  0
   95.8051   -2.3315   -1.4117 C   0  0  0  0  0  0  0  0  0  0  0  0
   95.6055   -1.1728   -0.7103 N   0  0  0  0  0  0  0  0  0  0  0  0
   97.0244   -2.9074   -1.7038 C   0  0  0  0  0  0  0  0  0  0  0  0
   98.2324   -2.3418   -1.3521 C   0  0  0  0  0  0  0  0  0  0  0  0
   99.4995   -2.9361   -1.6682 C   0  0  0  0  0  0  0  0  0  0  0  0
  100.4471   -2.0880   -1.2136 C   0  0  0  0  0  0  0  0  0  0  0  0
   99.7549   -0.9805   -0.6189 C   0  0  0  0  0  0  0  0  0  0  0  0
   98.4028   -1.1522   -0.7027 N   0  0  0  0  0  0  0  0  0  0  0  0
  100.4026    0.1043   -0.0639 C   0  0  0  0  0  0  0  0  0  0  0  0
   99.7336    1.1604    0.5203 C   0  0  0  0  0  0  0  0  0  0  0  0
  100.4034    2.2874    1.1040 C   0  0  0  0  0  0  0  0  0  0  0  0
   99.4410    3.0898    1.6077 C   0  0  0  0  0  0  0  0  0  0  0  0
   98.1873    2.4505    1.3284 C   0  0  0  0  0  0  0  0  0  0  0  0
   98.3798    1.2775    0.6554 N   0  0  0  0  0  0  0  0  0  0  0  0
   96.9711    2.9670    1.7248 C   0  0  0  0  0  0  0  0  0  0  0  0
   95.7640    2.3590    1.4481 C   0  0  0  0  0  0  0  0  0  0  0  0
   95.5845    1.2076    0.7291 N   0  0  0  0  0  0  0  0  0  0  0  0
   94.3891    3.7863    2.4559 H   0  0  0  0  0  0  0  0  0  0  0  0
   92.4870    2.1181    1.5102 H   0  0  0  0  0  0  0  0  0  0  0  0
   92.5229   -2.1683   -1.4454 H   0  0  0  0  0  0  0  0  0  0  0  0
   94.4547   -3.8108   -2.3766 H   0  0  0  0  0  0  0  0  0  0  0  0
   97.0325   -3.8431   -2.2415 H   0  0  0  0  0  0  0  0  0  0  0  0
   99.6195   -3.8747   -2.1737 H   0  0  0  0  0  0  0  0  0  0  0  0
  101.5149   -2.1788   -1.2636 H   0  0  0  0  0  0  0  0  0  0  0  0
  101.4814    0.1258   -0.0842 H   0  0  0  0  0  0  0  0  0  0  0  0
  101.4680    2.4203    1.1156 H   0  0  0  0  0  0  0  0  0  0  0  0
   99.5428    4.0256    2.1225 H   0  0  0  0  0  0  0  0  0  0  0  0
   96.9623    3.8934    2.2785 H   0  0  0  0  0  0  0  0  0  0  0  0
   47.4543    0.0976   -0.0057 C   0  0  0  0  0  0  0  0  0  0  0  0
   48.6665    0.0899   -0.0157 C   0  0  0  0  0  0  0  0  0  0  0  0
   58.3273    0.0366   -0.0274 C   0  0  0  0  0  0  0  0  0  0  0  0
   59.5400    0.0302   -0.0182 C   0  0  0  0  0  0  0  0  0  0  0  0
   69.2001    0.0378   -0.0147 C   0  0  0  0  0  0  0  0  0  0  0  0
   70.4132    0.0405   -0.0161 C   0  0  0  0  0  0  0  0  0  0  0  0
   80.0740    0.0511   -0.0373 C   0  0  0  0  0  0  0  0  0  0  0  0
   81.2868    0.0454   -0.0392 C   0  0  0  0  0  0  0  0  0  0  0  0
   90.9515   -0.0118    0.0040 C   0  0  0  0  0  0  0  0  0  0  0  0
   92.1637   -0.0110    0.0095 C   0  0  0  0  0  0  0  0  0  0  0  0
   53.4967    0.0578   -0.0445 Ni  0  0  0  0  0  0  0  0  0  0  0  0
   51.0185   -3.2958    0.6204 C   0  0  0  0  0  0  0  0  0  0  0  0
   50.0627   -2.3729    0.3680 C   0  0  0  0  0  0  0  0  0  0  0  0
   50.7406   -1.1259    0.1785 C   0  0  0  0  0  0  0  0  0  0  0  0
   50.0681    0.0818   -0.0275 C   0  0  0  0  0  0  0  0  0  0  0  0
   50.7551    1.2789   -0.2461 C   0  0  0  0  0  0  0  0  0  0  0  0
   50.0929    2.5339   -0.4377 C   0  0  0  0  0  0  0  0  0  0  0  0
   51.0582    3.4404   -0.7121 C   0  0  0  0  0  0  0  0  0  0  0  0
   52.3034    2.7342   -0.6769 C   0  0  0  0  0  0  0  0  0  0  0  0
   52.1047    1.4157   -0.3656 N   0  0  0  0  0  0  0  0  0  0  0  0
   53.5148    3.3215   -0.9780 C   0  0  0  0  0  0  0  0  0  0  0  0
   54.7194    2.6525   -0.9142 C   0  0  0  0  0  0  0  0  0  0  0  0
   55.9727    3.2596   -1.2474 C   0  0  0  0  0  0  0  0  0  0  0  0
   56.9284    2.3390   -0.9863 C   0  0  0  0  0  0  0  0  0  0  0  0
   56.2523    1.1789   -0.4892 C   0  0  0  0  0  0  0  0  0  0  0  0
   54.9041    1.3683   -0.4756 N   0  0  0  0  0  0  0  0  0  0  0  0
   56.9262    0.0415   -0.0348 C   0  0  0  0  0  0  0  0  0  0  0  0
   56.2389   -1.0920    0.4090 C   0  0  0  0  0  0  0  0  0  0  0  0
   56.9015   -2.2631    0.8984 C   0  0  0  0  0  0  0  0  0  0  0  0
   55.9364   -3.1789    1.1403 C   0  0  0  0  0  0  0  0  0  0  0  0
   54.6905   -2.5568    0.8070 C   0  0  0  0  0  0  0  0  0  0  0  0
   54.8892   -1.2697    0.3837 N   0  0  0  0  0  0  0  0  0  0  0  0
   53.4786   -3.2129    0.8640 C   0  0  0  0  0  0  0  0  0  0  0  0
   52.2730   -2.6069    0.5772 C   0  0  0  0  0  0  0  0  0  0  0  0
   52.0893   -1.2829    0.2803 N   0  0  0  0  0  0  0  0  0  0  0  0
   50.9068   -4.3439    0.8198 H   0  0  0  0  0  0  0  0  0  0  0  0
   49.0001   -2.5013    0.3022 H   0  0  0  0  0  0  0  0  0  0  0  0
   49.0332    2.6778   -0.3592 H   0  0  0  0  0  0  0  0  0  0  0  0
   50.9590    4.4880   -0.9200 H   0  0  0  0  0  0  0  0  0  0  0  0
   53.5205    4.3585   -1.2770 H   0  0  0  0  0  0  0  0  0  0  0  0
   56.0836    4.2566   -1.6272 H   0  0  0  0  0  0  0  0  0  0  0  0
   57.9899    2.4115   -1.1190 H   0  0  0  0  0  0  0  0  0  0  0  0
   57.9613   -2.3458    1.0380 H   0  0  0  0  0  0  0  0  0  0  0  0
   56.0362   -4.1814    1.5087 H   0  0  0  0  0  0  0  0  0  0  0  0
   53.4729   -4.2534    1.1509 H   0  0  0  0  0  0  0  0  0  0  0  0
   64.3695    0.0332   -0.0091 Ni  0  0  0  0  0  0  0  0  0  0  0  0
   61.9192   -3.4021    0.0021 C   0  0  0  0  0  0  0  0  0  0  0  0
   60.9577   -2.4561   -0.0974 C   0  0  0  0  0  0  0  0  0  0  0  0
   61.6235   -1.1900   -0.0375 C   0  0  0  0  0  0  0  0  0  0  0  0
   60.9410    0.0300   -0.0128 C   0  0  0  0  0  0  0  0  0  0  0  0
   61.6212    1.2512    0.0169 C   0  0  0  0  0  0  0  0  0  0  0  0
   60.9529    2.5159    0.0797 C   0  0  0  0  0  0  0  0  0  0  0  0
   61.9128    3.4639   -0.0143 C   0  0  0  0  0  0  0  0  0  0  0  0
   63.1610    2.7713   -0.1260 C   0  0  0  0  0  0  0  0  0  0  0  0
   62.9694    1.4163   -0.0756 N   0  0  0  0  0  0  0  0  0  0  0  0
   64.3666    3.4100   -0.3303 C   0  0  0  0  0  0  0  0  0  0  0  0
   65.5725    2.7452   -0.4145 C   0  0  0  0  0  0  0  0  0  0  0  0
   66.8182    3.4053   -0.6647 C   0  0  0  0  0  0  0  0  0  0  0  0
   67.7793    2.4570   -0.5865 C   0  0  0  0  0  0  0  0  0  0  0  0
   67.1151    1.2267   -0.2784 C   0  0  0  0  0  0  0  0  0  0  0  0
   65.7670    1.4052   -0.2095 N   0  0  0  0  0  0  0  0  0  0  0  0
   67.7990    0.0361   -0.0131 C   0  0  0  0  0  0  0  0  0  0  0  0
   67.1179   -1.1555    0.2549 C   0  0  0  0  0  0  0  0  0  0  0  0
   67.7848   -2.3842    0.5634 C   0  0  0  0  0  0  0  0  0  0  0  0
   66.8254   -3.3338    0.6463 C   0  0  0  0  0  0  0  0  0  0  0  0
   65.5779   -2.6760    0.3987 C   0  0  0  0  0  0  0  0  0  0  0  0
   65.7698   -1.3362    0.1903 N   0  0  0  0  0  0  0  0  0  0  0  0
   64.3728   -3.3428    0.3186 C   0  0  0  0  0  0  0  0  0  0  0  0
   63.1660   -2.7068    0.1133 C   0  0  0  0  0  0  0  0  0  0  0  0
   62.9719   -1.3523    0.0585 N   0  0  0  0  0  0  0  0  0  0  0  0
   61.8159   -4.4697    0.0032 H   0  0  0  0  0  0  0  0  0  0  0  0
   59.8985   -2.5791   -0.2095 H   0  0  0  0  0  0  0  0  0  0  0  0
   59.8932    2.6364    0.1906 H   0  0  0  0  0  0  0  0  0  0  0  0
   61.8075    4.5314   -0.0117 H   0  0  0  0  0  0  0  0  0  0  0  0
   64.3661    4.4845   -0.4316 H   0  0  0  0  0  0  0  0  0  0  0  0
   66.9209    4.4530   -0.8701 H   0  0  0  0  0  0  0  0  0  0  0  0
   68.8372    2.5548   -0.7293 H   0  0  0  0  0  0  0  0  0  0  0  0
   68.8434   -2.4803    0.7029 H   0  0  0  0  0  0  0  0  0  0  0  0
   66.9303   -4.3810    0.8533 H   0  0  0  0  0  0  0  0  0  0  0  0
   64.3742   -4.4171    0.4225 H   0  0  0  0  0  0  0  0  0  0  0  0
   75.2438    0.0467   -0.0261 Ni  0  0  0  0  0  0  0  0  0  0  0  0
   72.7960   -3.3759   -0.3176 C   0  0  0  0  0  0  0  0  0  0  0  0
   71.8344   -2.4251   -0.3378 C   0  0  0  0  0  0  0  0  0  0  0  0
   72.4982   -1.1690   -0.1608 C   0  0  0  0  0  0  0  0  0  0  0  0
   71.8143    0.0425   -0.0190 C   0  0  0  0  0  0  0  0  0  0  0  0
   72.4958    1.2558    0.1202 C   0  0  0  0  0  0  0  0  0  0  0  0
   71.8298    2.5102    0.3008 C   0  0  0  0  0  0  0  0  0  0  0  0
   72.7890    3.4633    0.2764 C   0  0  0  0  0  0  0  0  0  0  0  0
   74.0354    2.7832    0.0919 C   0  0  0  0  0  0  0  0  0  0  0  0
   73.8433    1.4288    0.0292 N   0  0  0  0  0  0  0  0  0  0  0  0
   75.2394    3.4373   -0.0694 C   0  0  0  0  0  0  0  0  0  0  0  0
   76.4455    2.7827   -0.2117 C   0  0  0  0  0  0  0  0  0  0  0  0
   77.6912    3.4617   -0.4061 C   0  0  0  0  0  0  0  0  0  0  0  0
   78.6533    2.5111   -0.4018 C   0  0  0  0  0  0  0  0  0  0  0  0
   77.9891    1.2594   -0.1969 C   0  0  0  0  0  0  0  0  0  0  0  0
   76.6408    1.4308   -0.1153 N   0  0  0  0  0  0  0  0  0  0  0  0
   78.6728    0.0506   -0.0342 C   0  0  0  0  0  0  0  0  0  0  0  0
   77.9927   -1.1597    0.1323 C   0  0  0  0  0  0  0  0  0  0  0  0
   78.6606   -2.4097    0.3362 C   0  0  0  0  0  0  0  0  0  0  0  0
   77.7007   -3.3624    0.3451 C   0  0  0  0  0  0  0  0  0  0  0  0
   76.4528   -2.6866    0.1547 C   0  0  0  0  0  0  0  0  0  0  0  0
   76.6445   -1.3343    0.0564 N   0  0  0  0  0  0  0  0  0  0  0  0
   75.2477   -3.3440    0.0174 C   0  0  0  0  0  0  0  0  0  0  0  0
   74.0416   -2.6928   -0.1390 C   0  0  0  0  0  0  0  0  0  0  0  0
   73.8466   -1.3387   -0.0758 N   0  0  0  0  0  0  0  0  0  0  0  0
   72.6935   -4.4394   -0.4122 H   0  0  0  0  0  0  0  0  0  0  0  0
   70.7763   -2.5379   -0.4679 H   0  0  0  0  0  0  0  0  0  0  0  0
   70.7721    2.6204    0.4362 H   0  0  0  0  0  0  0  0  0  0  0  0
   72.6844    4.5266    0.3718 H   0  0  0  0  0  0  0  0  0  0  0  0
   75.2378    4.5165   -0.0835 H   0  0  0  0  0  0  0  0  0  0  0  0
   77.7932    4.5227   -0.5261 H   0  0  0  0  0  0  0  0  0  0  0  0
   79.7121    2.6212   -0.5310 H   0  0  0  0  0  0  0  0  0  0  0  0
   79.7199   -2.5172    0.4623 H   0  0  0  0  0  0  0  0  0  0  0  0
   77.8057   -4.4230    0.4662 H   0  0  0  0  0  0  0  0  0  0  0  0
   75.2486   -4.4233    0.0319 H   0  0  0  0  0  0  0  0  0  0  0  0
   86.1192    0.0171   -0.0226 Ni  0  0  0  0  0  0  0  0  0  0  0  0
   83.6441   -3.2936   -0.8839 C   0  0  0  0  0  0  0  0  0  0  0  0
   82.6885   -2.3488   -0.7324 C   0  0  0  0  0  0  0  0  0  0  0  0
   83.3636   -1.1417   -0.3617 C   0  0  0  0  0  0  0  0  0  0  0  0
   82.6882    0.0387   -0.0376 C   0  0  0  0  0  0  0  0  0  0  0  0
   83.3750    1.2116    0.2896 C   0  0  0  0  0  0  0  0  0  0  0  0
   82.7118    2.4281    0.6505 C   0  0  0  0  0  0  0  0  0  0  0  0
   83.6778    3.3612    0.8084 C   0  0  0  0  0  0  0  0  0  0  0  0
   84.9246    2.7055    0.5516 C   0  0  0  0  0  0  0  0  0  0  0  0
   84.7255    1.3827    0.2587 N   0  0  0  0  0  0  0  0  0  0  0  0
   86.1377    3.3620    0.5530 C   0  0  0  0  0  0  0  0  0  0  0  0
   87.3442    2.7296    0.3355 C   0  0  0  0  0  0  0  0  0  0  0  0
   88.5992    3.4189    0.3170 C   0  0  0  0  0  0  0  0  0  0  0  0
   89.5551    2.4756    0.1579 C   0  0  0  0  0  0  0  0  0  0  0  0
   88.8769    1.2164    0.0869 C   0  0  0  0  0  0  0  0  0  0  0  0
   87.5279    1.3830    0.1695 N   0  0  0  0  0  0  0  0  0  0  0  0
   89.5496   -0.0052   -0.0036 C   0  0  0  0  0  0  0  0  0  0  0  0
   88.8626   -1.2180   -0.1024 C   0  0  0  0  0  0  0  0  0  0  0  0
   89.5252   -2.4857   -0.1685 C   0  0  0  0  0  0  0  0  0  0  0  0
   88.5591   -3.4163   -0.3399 C   0  0  0  0  0  0  0  0  0  0  0  0
   87.3133   -2.7108   -0.3709 C   0  0  0  0  0  0  0  0  0  0  0  0
   87.5126   -1.3670   -0.2002 N   0  0  0  0  0  0  0  0  0  0  0  0
   86.1010   -3.3268   -0.6031 C   0  0  0  0  0  0  0  0  0  0  0  0
   84.8966   -2.6545   -0.6131 C   0  0  0  0  0  0  0  0  0  0  0  0
   84.7115   -1.3299   -0.3191 N   0  0  0  0  0  0  0  0  0  0  0  0
   83.5338   -4.3262   -1.1521 H   0  0  0  0  0  0  0  0  0  0  0  0
   81.6277   -2.4341   -0.8633 H   0  0  0  0  0  0  0  0  0  0  0  0
   81.6508    2.5274    0.7700 H   0  0  0  0  0  0  0  0  0  0  0  0
   83.5781    4.3960    1.0725 H   0  0  0  0  0  0  0  0  0  0  0  0
   86.1434    4.4258    0.7354 H   0  0  0  0  0  0  0  0  0  0  0  0
   88.7111    4.4812    0.4144 H   0  0  0  0  0  0  0  0  0  0  0  0
   90.6181    2.5964    0.0843 H   0  0  0  0  0  0  0  0  0  0  0  0
   90.5858   -2.6201   -0.0840 H   0  0  0  0  0  0  0  0  0  0  0  0
   88.6581   -4.4798   -0.4385 H   0  0  0  0  0  0  0  0  0  0  0  0
   86.0947   -4.3902   -0.7875 H   0  0  0  0  0  0  0  0  0  0  0  0
  2  3  2  0  0  0  0
  3  4  1  0  0  0  0
  4  5  4  0  0  0  0
  5  6  4  0  0  0  0
  6  7  1  0  0  0  0
  7  8  2  0  0  0  0
  8  9  1  0  0  0  0
  1 10  1  0  0  0  0
  6 10  4  0  0  0  0
  9 10  4  0  0  0  0
  9 11  4  0  0  0  0
 11 12  4  0  0  0  0
 12 13  1  0  0  0  0
 13 14  2  0  0  0  0
 14 15  1  0  0  0  0
  1 16  1  0  0  0  0
 12 16  4  0  0  0  0
 15 16  4  0  0  0  0
 15 17  4  0  0  0  0
 17 18  4  0  0  0  0
 18 19  1  0  0  0  0
 19 20  2  0  0  0  0
 20 21  1  0  0  0  0
  1 22  1  0  0  0  0
 18 22  4  0  0  0  0
 21 22  4  0  0  0  0
 21 23  4  0  0  0  0
  2 24  1  0  0  0  0
 23 24  4  0  0  0  0
  1 25  1  0  0  0  0
  4 25  4  0  0  0  0
 24 25  4  0  0  0  0
  2 26  1  0  0  0  0
  3 27  1  0  0  0  0
  7 28  1  0  0  0  0
  8 29  1  0  0  0  0
 11 30  1  0  0  0  0
 13 31  1  0  0  0  0
 14 32  1  0  0  0  0
 17 33  1  0  0  0  0
 19 34  1  0  0  0  0
 20 35  1  0  0  0  0
 23 36  1  0  0  0  0
 38 39  2  0  0  0  0
 39 40  1  0  0  0  0
 40 41  4  0  0  0  0
 41 42  4  0  0  0  0
 42 43  1  0  0  0  0
 43 44  2  0  0  0  0
 44 45  1  0  0  0  0
 37 46  1  0  0  0  0
 42 46  4  0  0  0  0
 45 46  4  0  0  0  0
 45 47  4  0  0  0  0
 47 48  4  0  0  0  0
 48 49  1  0  0  0  0
 49 50  2  0  0  0  0
 50 51  1  0  0  0  0
 37 52  1  0  0  0  0
 48 52  4  0  0  0  0
 51 52  4  0  0  0  0
 51 53  4  0  0  0  0
 53 54  4  0  0  0  0
 54 55  1  0  0  0  0
 55 56  2  0  0  0  0
 56 57  1  0  0  0  0
 37 58  1  0  0  0  0
 54 58  4  0  0  0  0
 57 58  4  0  0  0  0
 57 59  4  0  0  0  0
 38 60  1  0  0  0  0
 59 60  4  0  0  0  0
 37 61  1  0  0  0  0
 40 61  4  0  0  0  0
 60 61  4  0  0  0  0
 38 62  1  0  0  0  0
 39 63  1  0  0  0  0
 43 64  1  0  0  0  0
 44 65  1  0  0  0  0
 47 66  1  0  0  0  0
 49 67  1  0  0  0  0
 50 68  1  0  0  0  0
 53 69  1  0  0  0  0
 55 70  1  0  0  0  0
 56 71  1  0  0  0  0
 59 72  1  0  0  0  0
  5 73  1  0  0  0  0
 73 74  3  0  0  0  0
 75 76  3  0  0  0  0
 77 78  3  0  0  0  0
 79 80  3  0  0  0  0
 41 82  1  0  0  0  0
 81 82  3  0  0  0  0
 84 85  2  0  0  0  0
 85 86  1  0  0  0  0
 74 87  1  0  0  0  0
 86 87  4  0  0  0  0
 87 88  4  0  0  0  0
 88 89  1  0  0  0  0
 89 90  2  0  0  0  0
 90 91  1  0  0  0  0
 83 92  1  0  0  0  0
 88 92  4  0  0  0  0
 91 92  4  0  0  0  0
 91 93  4  0  0  0  0
 93 94  4  0  0  0  0
 94 95  1  0  0  0  0
 95 96  2  0  0  0  0
 96 97  1  0  0  0  0
 83 98  1  0  0  0  0
 94 98  4  0  0  0  0
 97 98  4  0  0  0  0
 75 99  1  0  0  0  0
 97 99  4  0  0  0  0
 99100  4  0  0  0  0
100101  1  0  0  0  0
101102  2  0  0  0  0
102103  1  0  0  0  0
 83104  1  0  0  0  0
100104  4  0  0  0  0
103104  4  0  0  0  0
103105  4  0  0  0  0
 84106  1  0  0  0  0
105106  4  0  0  0  0
 83107  1  0  0  0  0
 86107  4  0  0  0  0
106107  4  0  0  0  0
 84108  1  0  0  0  0
 85109  1  0  0  0  0
 89110  1  0  0  0  0
 90111  1  0  0  0  0
 93112  1  0  0  0  0
 95113  1  0  0  0  0
 96114  1  0  0  0  0
101115  1  0  0  0  0
102116  1  0  0  0  0
105117  1  0  0  0  0
119120  2  0  0  0  0
120121  1  0  0  0  0
 76122  1  0  0  0  0
121122  4  0  0  0  0
122123  4  0  0  0  0
123124  1  0  0  0  0
124125  2  0  0  0  0
125126  1  0  0  0  0
118127  1  0  0  0  0
123127  4  0  0  0  0
126127  4  0  0  0  0
126128  4  0  0  0  0
128129  4  0  0  0  0
129130  1  0  0  0  0
130131  2  0  0  0  0
131132  1  0  0  0  0
118133  1  0  0  0  0
129133  4  0  0  0  0
132133  4  0  0  0  0
 77134  1  0  0  0  0
132134  4  0  0  0  0
134135  4  0  0  0  0
135136  1  0  0  0  0
136137  2  0  0  0  0
137138  1  0  0  0  0
118139  1  0  0  0  0
135139  4  0  0  0  0
138139  4  0  0  0  0
138140  4  0  0  0  0
119141  1  0  0  0  0
140141  4  0  0  0  0
118142  1  0  0  0  0
121142  4  0  0  0  0
141142  4  0  0  0  0
119143  1  0  0  0  0
120144  1  0  0  0  0
124145  1  0  0  0  0
125146  1  0  0  0  0
128147  1  0  0  0  0
130148  1  0  0  0  0
131149  1  0  0  0  0
136150  1  0  0  0  0
137151  1  0  0  0  0
140152  1  0  0  0  0
154155  2  0  0  0  0
155156  1  0  0  0  0
 78157  1  0  0  0  0
156157  4  0  0  0  0
157158  4  0  0  0  0
158159  1  0  0  0  0
159160  2  0  0  0  0
160161  1  0  0  0  0
153162  1  0  0  0  0
158162  4  0  0  0  0
161162  4  0  0  0  0
161163  4  0  0  0  0
163164  4  0  0  0  0
164165  1  0  0  0  0
165166  2  0  0  0  0
166167  1  0  0  0  0
153168  1  0  0  0  0
164168  4  0  0  0  0
167168  4  0  0  0  0
 79169  1  0  0  0  0
167169  4  0  0  0  0
169170  4  0  0  0  0
170171  1  0  0  0  0
171172  2  0  0  0  0
172173  1  0  0  0  0
153174  1  0  0  0  0
170174  4  0  0  0  0
173174  4  0  0  0  0
173175  4  0  0  0  0
154176  1  0  0  0  0
175176  4  0  0  0  0
153177  1  0  0  0  0
156177  4  0  0  0  0
176177  4  0  0  0  0
154178  1  0  0  0  0
155179  1  0  0  0  0
159180  1  0  0  0  0
160181  1  0  0  0  0
163182  1  0  0  0  0
165183  1  0  0  0  0
166184  1  0  0  0  0
171185  1  0  0  0  0
172186  1  0  0  0  0
175187  1  0  0  0  0
189190  2  0  0  0  0
190191  1  0  0  0  0
 80192  1  0  0  0  0
191192  4  0  0  0  0
192193  4  0  0  0  0
193194  1  0  0  0  0
194195  2  0  0  0  0
195196  1  0  0  0  0
188197  1  0  0  0  0
193197  4  0  0  0  0
196197  4  0  0  0  0
196198  4  0  0  0  0
198199  4  0  0  0  0
199200  1  0  0  0  0
200201  2  0  0  0  0
201202  1  0  0  0  0
188203  1  0  0  0  0
199203  4  0  0  0  0
202203  4  0  0  0  0
 81204  1  0  0  0  0
202204  4  0  0  0  0
204205  4  0  0  0  0
205206  1  0  0  0  0
206207  2  0  0  0  0
207208  1  0  0  0  0
188209  1  0  0  0  0
205209  4  0  0  0  0
208209  4  0  0  0  0
208210  4  0  0  0  0
189211  1  0  0  0  0
210211  4  0  0  0  0
188212  1  0  0  0  0
191212  4  0  0  0  0
211212  4  0  0  0  0
189213  1  0  0  0  0
190214  1  0  0  0  0
194215  1  0  0  0  0
195216  1  0  0  0  0
198217  1  0  0  0  0
200218  1  0  0  0  0
201219  1  0  0  0  0
206220  1  0  0  0  0
207221  1  0  0  0  0
210222  1  0  0  0  0
M  END
