232

Fe 35.716643 0.006178 -0.013323
C 38.219563 -3.379495 0.023497
C 39.210849 -2.457562 0.023936
C 38.569331 -1.178731 0.007988
C 39.244523 0.045800 -0.002676
C 38.542216 1.254845 -0.014221
C 39.154852 2.547832 -0.021279
C 38.143057 3.447243 -0.021356
C 36.919689 2.697907 -0.015543
N 37.184971 1.353569 -0.012517
C 35.676928 3.300767 -0.011325
C 34.449517 2.667973 -0.011060
C 33.205381 3.386789 -0.009316
C 32.218721 2.462602 -0.018036
C 32.862964 1.181233 -0.024026
N 34.220594 1.319931 -0.018183
C 32.206575 -0.033342 -0.036512
C 32.890232 -1.232838 -0.037917
C 32.275071 -2.528400 -0.048428
C 33.282248 -3.430166 -0.038617
C 34.509763 -2.683516 -0.022700
N 34.250583 -1.340950 -0.024218
C 35.750938 -3.288593 -0.005335
C 36.979738 -2.657935 0.006995
N 37.214748 -1.307982 -0.000432
H 38.300427 -4.449315 0.032893
H 40.273096 -2.606215 0.033550
H 40.213572 2.720295 -0.024586
H 38.199785 4.518678 -0.025117
H 35.664907 4.381588 -0.009446
H 33.122478 4.456687 -0.002948
H 31.156155 2.611065 -0.020231
H 31.127705 -0.045505 -0.044413
H 31.216199 -2.700733 -0.060987
H 33.223546 -4.501682 -0.041573
H 35.763197 -4.369404 -0.002083
Fe 103.896536 0.040589 -0.011671
C 101.403032 3.380610 0.585865
C 100.409145 2.475363 0.426796
C 101.047150 1.214488 0.202236
C 100.368809 0.009544 -0.005334
C 101.067627 -1.183479 -0.213283
C 100.451138 -2.455776 -0.433489
C 101.460247 -3.343788 -0.593842
C 102.685829 -2.608231 -0.470935
N 102.424560 -1.283583 -0.237158
C 103.926785 -3.204307 -0.583065
C 105.155955 -2.583203 -0.481464
C 106.397987 -3.293168 -0.615057
C 107.387280 -2.384724 -0.461028
C 106.746729 -1.121838 -0.233426
N 105.388720 -1.256080 -0.248567
C 107.406617 0.072854 -0.025013
C 106.726450 1.255008 0.189603
C 107.345434 2.529156 0.414154
C 106.340850 3.418860 0.578179
C 105.111076 2.686365 0.453043
N 105.366357 1.364142 0.215879
C 103.871582 3.284934 0.563966
C 102.640900 2.667007 0.457056
N 102.402157 1.338389 0.221801
H 101.325151 4.434151 0.773251
H 99.347287 2.624260 0.455955
H 99.391922 -2.623294 -0.458677
H 101.400327 -4.398926 -0.778904
H 103.935671 -4.268775 -0.770524
H 106.477787 -4.346895 -0.801846
H 108.449388 -2.532702 -0.494183
H 108.485526 0.082882 -0.029523
H 108.404862 2.696665 0.438837
H 106.402672 4.473545 0.766360
H 103.862454 4.349038 0.753457
C 40.641465 0.059852 -0.001052
C 41.859339 0.067642 -0.001144
C 43.202221 0.072653 -0.001511
C 44.420255 0.073123 -0.002432
C 54.279902 0.049268 -0.023942
C 55.498111 0.048654 -0.023323
C 56.840646 0.046867 -0.022602
C 58.058871 0.046599 -0.021153
C 67.917793 0.036981 -0.020016
C 69.135988 0.045084 -0.019303
C 70.478457 0.043725 -0.020153
C 71.696656 0.050184 -0.020051
C 81.555222 0.044088 -0.020807
C 82.773413 0.042290 -0.021667
C 84.115903 0.039024 -0.021079
C 85.334087 0.034993 -0.022098
C 95.192935 -0.008541 -0.008722
C 96.410878 -0.009527 -0.007663
C 97.753862 -0.006274 -0.007524
C 98.971704 -0.001658 -0.004660
Fe 49.350084 0.061429 -0.013723
C 46.875408 -3.321896 0.391008
C 45.874966 -2.415522 0.288137
C 46.503997 -1.139618 0.135095
C 45.816706 0.070660 -0.004379
C 46.509403 1.277427 -0.146602
C 45.886204 2.556729 -0.295029
C 46.890793 3.458009 -0.402232
C 48.119743 2.723068 -0.318709
N 47.865161 1.385603 -0.162394
C 49.357616 3.331180 -0.389555
C 50.592768 2.717576 -0.318997
C 51.825085 3.446956 -0.401141
C 52.825490 2.540429 -0.299042
C 52.196389 1.263476 -0.155583
N 50.841234 1.378341 -0.167637
C 52.883712 0.052379 -0.022556
C 52.190847 -1.155302 0.112670
C 52.814106 -2.435584 0.251969
C 51.809582 -3.337009 0.358847
C 50.580635 -2.601196 0.283879
N 50.835191 -1.263206 0.131590
C 49.342724 -3.208234 0.362397
C 48.107683 -2.593574 0.299256
N 47.859206 -1.254889 0.143350
H 46.805095 -4.385053 0.517131
H 44.814189 -2.572871 0.311537
H 44.826135 2.719649 -0.312015
H 46.825372 4.521694 -0.526372
H 49.359955 4.405057 -0.513194
H 51.895486 4.510834 -0.520836
H 53.886284 2.698415 -0.316698
H 53.874167 -2.599066 0.263694
H 51.875084 -4.401324 0.477477
H 49.340138 -4.282057 0.486516
Fe 62.988423 0.041285 -0.020001
C 60.517589 -3.345606 0.380568
C 59.516145 -2.440704 0.274201
C 60.143788 -1.163959 0.122857
C 59.455051 0.045147 -0.020521
C 60.146416 1.252780 -0.163691
C 59.521590 2.530813 -0.315881
C 60.525032 3.433439 -0.422825
C 61.754857 2.700594 -0.334892
N 61.501940 1.363049 -0.176237
C 62.991989 3.310218 -0.405383
C 64.227780 2.698370 -0.331084
C 65.459281 3.428951 -0.414608
C 66.460669 2.524112 -0.307218
C 65.832909 1.246986 -0.159441
N 64.477673 1.360039 -0.173999
C 66.521683 0.037443 -0.019538
C 65.830488 -1.170565 0.120494
C 66.455370 -2.449070 0.268317
C 65.451927 -3.351841 0.374124
C 64.222053 -2.618507 0.290544
N 64.474964 -1.280630 0.134651
C 62.984868 -3.227719 0.363697
C 61.749063 -2.615406 0.293377
N 61.499066 -1.277189 0.135618
H 60.448401 -4.408867 0.506288
H 58.455531 -2.599665 0.293657
H 58.461349 2.692128 -0.335460
H 60.458281 4.496761 -0.549371
H 62.993183 4.383701 -0.532368
H 65.528552 4.492338 -0.538864
H 67.521267 2.683330 -0.324126
H 67.515678 -2.610556 0.285680
H 65.518722 -4.415601 0.497282
H 62.983652 -4.301339 0.489598
Fe 76.625899 0.047744 -0.020210
C 74.156548 -3.340174 0.380131
C 73.154822 -2.435609 0.273702
C 73.782097 -1.158529 0.123529
C 73.092767 0.050329 -0.019284
C 73.783348 1.258340 -0.162458
C 73.157913 2.536108 -0.314250
C 74.160965 3.439106 -0.421897
C 75.391154 2.706641 -0.335369
N 75.138836 1.369040 -0.176260
C 76.628069 3.316460 -0.408249
C 77.864119 2.704868 -0.335957
C 79.095311 3.435553 -0.423101
C 80.097098 2.531124 -0.316062
C 79.469926 1.254239 -0.163905
N 78.114619 1.366886 -0.177047
C 80.159082 0.045467 -0.020120
C 79.468314 -1.162428 0.123761
C 80.093814 -2.440157 0.275729
C 79.090833 -3.343321 0.382500
C 77.860635 -2.611060 0.294929
N 78.112869 -1.273370 0.136384
C 76.623769 -3.221077 0.366354
C 75.387772 -2.609458 0.293949
N 75.137359 -1.271265 0.136376
H 74.087743 -4.403561 0.505245
H 72.094244 -2.594927 0.292622
H 72.097584 2.697057 -0.332850
H 74.093673 4.502382 -0.548274
H 76.628819 4.389872 -0.535865
H 79.164080 4.498782 -0.549367
H 81.157639 2.690498 -0.335293
H 81.154153 -2.600907 0.295464
H 79.158158 -4.406615 0.508871
H 76.623000 -4.294620 0.492859
Fe 90.263451 0.012498 -0.018166
C 87.780337 -3.366628 0.373287
C 86.782221 -2.457121 0.275163
C 87.414509 -1.182787 0.122539
C 86.730233 0.028717 -0.021994
C 87.425922 1.233661 -0.166317
C 86.805710 2.513505 -0.322181
C 87.812360 3.413440 -0.421080
C 89.039530 2.677228 -0.324220
N 88.781805 1.339995 -0.170683
C 90.278802 3.284209 -0.377287
C 91.512218 2.668595 -0.294732
C 92.746301 3.396920 -0.358010
C 93.744418 2.488016 -0.255048
C 93.112157 1.210613 -0.129995
N 91.757252 1.327787 -0.152363
C 93.796361 -0.003481 -0.010889
C 93.100967 -1.211362 0.105048
C 93.721169 -2.494480 0.231725
C 92.714458 -3.394582 0.328270
C 91.487243 -2.655121 0.260354
N 91.744944 -1.316376 0.121133
C 90.248000 -3.259782 0.336563
C 89.014440 -2.641505 0.280754
N 88.769353 -1.301630 0.129523
H 87.707275 -4.429904 0.496620
H 85.721052 -2.611593 0.300246
H 85.746063 2.677681 -0.349637
H 87.749416 4.477044 -0.547336
H 90.284016 4.358628 -0.495979
H 92.819291 4.461744 -0.467318
H 94.805580 2.644454 -0.262271
H 94.780841 -2.660368 0.244016
H 92.777350 -4.460182 0.436361
H 90.243071 -4.334460 0.452931
