222

Cu 42.544942 0.036008 -0.007867
C 45.029576 -1.710137 2.973894
C 45.993382 -1.214480 2.162208
C 45.320989 -0.590404 1.058859
C 45.982788 0.039248 -0.004072
C 45.322402 0.668310 -1.068234
C 45.995989 1.294142 -2.169888
C 45.032943 1.790538 -2.982078
C 43.773201 1.461938 -2.378261
N 43.982497 0.778229 -1.220685
C 42.544773 1.801241 -2.916590
C 41.316801 1.478368 -2.367726
C 40.052138 1.837096 -2.949804
C 39.093570 1.337719 -2.136714
C 39.771453 0.673415 -1.056646
N 41.114009 0.777564 -1.223267
C 39.129278 0.027747 -0.014653
C 39.770275 -0.612773 1.031222
C 39.091319 -1.275790 2.111420
C 40.049038 -1.766274 2.930920
C 41.314243 -1.404675 2.351818
N 41.112658 -0.709756 1.203599
C 42.541593 -1.722243 2.905149
C 43.770500 -1.383219 2.367813
N 43.980974 -0.701306 1.209374
H 45.141641 -2.244145 3.897587
H 47.058109 -1.245027 2.287398
H 47.060898 1.325438 -2.293596
H 45.145873 2.325615 -3.905064
H 42.545811 2.358649 -3.842204
H 39.937419 2.395831 -3.858645
H 38.027259 1.399990 -2.238735
H 38.049038 0.024579 -0.017223
H 38.024929 -1.342834 2.209474
H 39.933469 -2.320721 3.842295
H 42.541723 -2.276066 3.832914
Cu 97.072964 0.036748 -0.011660
C 94.586256 2.077629 2.774539
C 93.622879 1.499036 2.019122
C 94.295712 0.768325 0.983611
C 93.634611 0.038094 -0.013422
C 94.296209 -0.690049 -1.011705
C 93.623824 -1.415215 -2.051386
C 94.587547 -1.987106 -2.811426
C 95.846592 -1.606273 -2.237653
N 95.636199 -0.816318 -1.150004
C 97.075344 -2.000175 -2.736576
C 98.302788 -1.635217 -2.213507
C 99.567664 -2.058899 -2.749628
C 100.525708 -1.492879 -1.980760
C 99.847299 -0.721056 -0.975065
N 98.504870 -0.829614 -1.140119
C 100.488863 0.021907 0.000346
C 99.847108 0.774259 0.968408
C 100.525191 1.546748 1.973806
C 99.566781 2.129458 2.729634
C 98.301999 1.712860 2.187706
N 98.504575 0.896973 1.122219
C 97.074123 2.089173 2.701650
C 95.845576 1.693580 2.203463
N 95.635679 0.896161 1.121190
H 94.473867 2.702434 3.639376
H 92.558208 1.539005 2.142271
H 92.559189 -1.455804 -2.174354
H 94.475421 -2.606061 -3.680487
H 97.075013 -2.641918 -3.605848
H 99.682817 -2.702876 -3.600152
H 101.592001 -1.574319 -2.068413
H 101.569079 0.015873 0.005052
H 101.591521 1.618154 2.069456
H 99.681688 2.779823 3.575311
H 97.073268 2.738860 3.565001
C 47.385103 0.040323 -0.002222
C 48.597961 0.039342 -0.000970
C 58.291813 0.021103 -0.037753
C 59.505330 0.023075 -0.034618
C 69.200413 0.048156 -0.015455
C 70.413946 0.045554 -0.014371
C 80.110447 0.037416 -0.026537
C 81.323991 0.041417 -0.024562
C 91.019395 0.038053 -0.019095
C 92.232289 0.038147 -0.014553
Cu 53.444483 0.026437 -0.023709
C 50.958852 -2.959070 1.712359
C 49.992948 -2.148956 1.217679
C 50.662579 -1.036684 0.606817
C 49.999735 0.037378 -0.003353
C 50.662679 1.108552 -0.618542
C 49.993085 2.226977 -1.218092
C 50.958149 3.029849 -1.726069
C 52.214514 2.403104 -1.430061
N 52.001921 1.244352 -0.749358
C 53.442967 2.912395 -1.810071
C 54.671914 2.346124 -1.523864
C 55.927217 2.890505 -1.955389
C 56.893108 2.078295 -1.464080
C 56.225656 1.044399 -0.726818
N 54.886322 1.220979 -0.789122
C 56.890786 0.019937 -0.037280
C 56.227151 -1.005062 0.652799
C 56.896307 -2.045644 1.378973
C 55.931246 -2.857156 1.872965
C 54.674629 -2.304500 1.456017
N 54.887595 -1.176909 0.724667
C 53.445664 -2.863283 1.756559
C 52.215736 -2.342832 1.397096
N 52.002434 -1.182338 0.719664
H 50.849304 -3.887492 2.238676
H 48.928735 -2.279808 1.242339
H 48.929699 2.366604 -1.226089
H 50.848488 3.960114 -2.249092
H 53.442573 3.831069 -2.379201
H 56.035876 3.772775 -2.556016
H 57.955813 2.146978 -1.589678
H 57.959648 -2.119459 1.495456
H 56.041219 -3.743681 2.467048
H 53.446592 -3.784009 2.322367
Cu 64.352918 0.037355 -0.021717
C 61.877207 -3.369885 0.570956
C 60.909655 -2.446932 0.356227
C 61.573993 -1.188292 0.176886
C 60.906269 0.027589 -0.030778
C 61.568129 1.247486 -0.233659
C 60.897786 2.502622 -0.415273
C 61.861512 3.431397 -0.622104
C 63.118393 2.742722 -0.557771
N 62.907182 1.421487 -0.309531
C 64.345684 3.351309 -0.748160
C 65.575803 2.724199 -0.668110
C 66.829720 3.381772 -0.899325
C 67.797451 2.455293 -0.700933
C 67.132466 1.236524 -0.340226
N 65.792718 1.421003 -0.341821
C 67.799542 0.046134 -0.015802
C 67.137139 -1.147067 0.308205
C 67.807127 -2.361970 0.672682
C 66.843519 -3.292933 0.869890
C 65.587067 -2.642020 0.633879
N 65.798353 -1.338215 0.306247
C 64.360148 -3.275695 0.710371
C 63.130513 -2.674253 0.512890
N 62.913447 -1.354667 0.261068
H 61.770859 -4.422568 0.748445
H 59.847758 -2.587019 0.306051
H 59.834772 2.636577 -0.371859
H 61.750327 4.483799 -0.798323
H 64.343210 4.406977 -0.979365
H 66.936356 4.411943 -1.179236
H 68.859954 2.563106 -0.797635
H 68.869780 -2.464216 0.773131
H 66.954485 -4.322143 1.151603
H 64.362547 -4.330914 0.943562
Cu 75.261976 0.041001 -0.017479
C 72.774044 -3.366592 -0.556393
C 71.809219 -2.422240 -0.449526
C 72.478259 -1.175009 -0.215955
C 71.814824 0.044310 -0.014719
C 72.480830 1.262108 0.187076
C 71.814486 2.509907 0.425236
C 72.781309 3.452075 0.533469
C 74.035958 2.776008 0.369283
N 73.820398 1.447031 0.171313
C 75.265438 3.408964 0.390944
C 76.493454 2.786688 0.258431
C 77.749208 3.480361 0.256914
C 78.714063 2.538110 0.133156
C 78.045625 1.270565 0.068477
N 76.706466 1.448583 0.132181
C 78.709440 0.038499 -0.025600
C 78.043405 -1.192538 -0.116997
C 78.709721 -2.461110 -0.183533
C 77.742955 -3.402174 -0.301203
C 76.488190 -2.706734 -0.297141
N 76.703714 -1.368762 -0.173834
C 75.258583 -3.327401 -0.422079
C 74.030268 -2.692298 -0.397132
N 73.817530 -1.362430 -0.202129
H 72.664036 -4.419530 -0.730101
H 70.746212 -2.536554 -0.531671
H 70.751781 2.625796 0.509386
H 72.673623 4.504631 0.710924
H 75.266711 4.481714 0.521734
H 77.858888 4.544613 0.336259
H 79.776659 2.669288 0.074629
H 79.772426 -2.593783 -0.130577
H 77.850759 -4.466668 -0.379909
H 75.257469 -4.400486 -0.550081
Cu 86.172063 0.039452 -0.022448
C 83.686976 -3.001985 -1.656645
C 82.721421 -2.147606 -1.242324
C 83.389596 -1.045270 -0.612819
C 82.725062 0.040178 -0.023202
C 83.389703 1.124564 0.568187
C 82.721648 2.225525 1.200246
C 83.687363 3.078703 1.616721
C 84.943236 2.492456 1.246004
N 84.729252 1.303359 0.619922
C 86.172404 3.078871 1.487207
C 87.401677 2.531733 1.167278
C 88.658296 3.178449 1.415424
C 89.623944 2.329039 0.991187
C 88.954459 1.162958 0.490475
N 87.614807 1.314565 0.597805
C 89.617612 0.038849 -0.021442
C 88.954544 -1.084197 -0.535810
C 89.623971 -2.248846 -1.039929
C 88.658266 -3.097595 -1.465370
C 87.401628 -2.452156 -1.214087
N 87.614869 -1.235895 -0.642760
C 86.172100 -3.000381 -1.531170
C 84.942969 -2.414731 -1.287919
N 84.729141 -1.224439 -0.664066
H 83.577692 -3.939288 -2.167009
H 81.658374 -2.230619 -1.355166
H 81.658589 2.308435 1.313392
H 83.578232 4.014513 2.129856
H 86.172278 4.046881 1.967670
H 88.767775 4.152164 1.852311
H 90.687795 2.465022 0.995592
H 90.687860 -2.384381 -1.046167
H 88.767755 -4.069925 -1.905329
H 86.171652 -3.968625 -2.011157
