
  xtb     11202115543D
 xtb: 6.4.1 (bd6e46d)
 74 89  0     0  0            999 V2000
    9.2005   -0.0638    0.0626 Cu  0  0  0  0  0  0  0  0  0  0  0  0
   11.7327   -3.3755    0.9261 C   0  0  0  0  0  0  0  0  0  0  0  0
   12.6839   -2.4449    0.6762 C   0  0  0  0  0  0  0  0  0  0  0  0
   11.9944   -1.2327    0.3374 C   0  0  0  0  0  0  0  0  0  0  0  0
   12.6386   -0.0337    0.0037 C   0  0  0  0  0  0  0  0  0  0  0  0
   11.9614    1.1496   -0.3211 C   0  0  0  0  0  0  0  0  0  0  0  0
   12.6172    2.3676   -0.7033 C   0  0  0  0  0  0  0  0  0  0  0  0
   11.6411    3.2765   -0.9373 C   0  0  0  0  0  0  0  0  0  0  0  0
   10.3913    2.6117   -0.6999 C   0  0  0  0  0  0  0  0  0  0  0  0
   10.6194    1.3219   -0.3327 N   0  0  0  0  0  0  0  0  0  0  0  0
    9.1547    3.2191   -0.8275 C   0  0  0  0  0  0  0  0  0  0  0  0
    7.9355    2.6007   -0.6152 C   0  0  0  0  0  0  0  0  0  0  0  0
    6.6624    3.2552   -0.7502 C   0  0  0  0  0  0  0  0  0  0  0  0
    5.7169    2.3288   -0.4721 C   0  0  0  0  0  0  0  0  0  0  0  0
    6.4111    1.1066   -0.1683 C   0  0  0  0  0  0  0  0  0  0  0  0
    7.7502    1.3040   -0.2606 N   0  0  0  0  0  0  0  0  0  0  0  0
    5.7859   -0.0838    0.1599 C   0  0  0  0  0  0  0  0  0  0  0  0
    6.4429   -1.2675    0.4470 C   0  0  0  0  0  0  0  0  0  0  0  0
    5.7815   -2.4986    0.7853 C   0  0  0  0  0  0  0  0  0  0  0  0
    6.7518   -3.4166    0.9977 C   0  0  0  0  0  0  0  0  0  0  0  0
    8.0073   -2.7474    0.7901 C   0  0  0  0  0  0  0  0  0  0  0  0
    7.7874   -1.4506    0.4567 N   0  0  0  0  0  0  0  0  0  0  0  0
    9.2432   -3.3540    0.9264 C   0  0  0  0  0  0  0  0  0  0  0  0
   10.4641   -2.7283    0.7472 C   0  0  0  0  0  0  0  0  0  0  0  0
   10.6570   -1.4294    0.3918 N   0  0  0  0  0  0  0  0  0  0  0  0
   11.8589   -4.4027    1.2091 H   0  0  0  0  0  0  0  0  0  0  0  0
   13.7507   -2.5454    0.7240 H   0  0  0  0  0  0  0  0  0  0  0  0
   13.6798    2.4852   -0.7899 H   0  0  0  0  0  0  0  0  0  0  0  0
   11.7390    4.2998   -1.2442 H   0  0  0  0  0  0  0  0  0  0  0  0
    9.1412    4.2601   -1.1170 H   0  0  0  0  0  0  0  0  0  0  0  0
    6.5335    4.2854   -1.0212 H   0  0  0  0  0  0  0  0  0  0  0  0
    4.6495    2.4390   -0.4687 H   0  0  0  0  0  0  0  0  0  0  0  0
    4.7061   -0.0899    0.1923 H   0  0  0  0  0  0  0  0  0  0  0  0
    4.7171   -2.6200    0.8471 H   0  0  0  0  0  0  0  0  0  0  0  0
    6.6508   -4.4494    1.2703 H   0  0  0  0  0  0  0  0  0  0  0  0
    9.2573   -4.3984    1.2032 H   0  0  0  0  0  0  0  0  0  0  0  0
   14.0415   -0.0169   -0.0075 C   0  0  0  0  0  0  0  0  0  0  0  0
   15.2539   -0.0009   -0.0115 C   0  0  0  0  0  0  0  0  0  0  0  0
   20.0950    0.0630   -0.0637 Cu  0  0  0  0  0  0  0  0  0  0  0  0
   17.5759    3.3427    0.9458 C   0  0  0  0  0  0  0  0  0  0  0  0
   16.6211    2.4144    0.7002 C   0  0  0  0  0  0  0  0  0  0  0  0
   17.3054    1.2127    0.3157 C   0  0  0  0  0  0  0  0  0  0  0  0
   16.6568    0.0167   -0.0203 C   0  0  0  0  0  0  0  0  0  0  0  0
   17.3297   -1.1640   -0.3628 C   0  0  0  0  0  0  0  0  0  0  0  0
   16.6689   -2.3869   -0.7199 C   0  0  0  0  0  0  0  0  0  0  0  0
   17.6417   -3.2939   -0.9734 C   0  0  0  0  0  0  0  0  0  0  0  0
   18.8947   -2.6216   -0.7783 C   0  0  0  0  0  0  0  0  0  0  0  0
   18.6716   -1.3311   -0.4107 N   0  0  0  0  0  0  0  0  0  0  0  0
   20.1297   -3.2203   -0.9536 C   0  0  0  0  0  0  0  0  0  0  0  0
   21.3516   -2.5891   -0.8035 C   0  0  0  0  0  0  0  0  0  0  0  0
   22.6227   -3.2298   -1.0071 C   0  0  0  0  0  0  0  0  0  0  0  0
   23.5716   -2.2926   -0.7823 C   0  0  0  0  0  0  0  0  0  0  0  0
   22.8815   -1.0783   -0.4401 C   0  0  0  0  0  0  0  0  0  0  0  0
   21.5416   -1.2903   -0.4601 N   0  0  0  0  0  0  0  0  0  0  0  0
   23.5103    0.1177   -0.1407 C   0  0  0  0  0  0  0  0  0  0  0  0
   22.8568    1.2911    0.1937 C   0  0  0  0  0  0  0  0  0  0  0  0
   23.5223    2.5249    0.5139 C   0  0  0  0  0  0  0  0  0  0  0  0
   22.5553    3.4275    0.7958 C   0  0  0  0  0  0  0  0  0  0  0  0
   21.2975    2.7471    0.6462 C   0  0  0  0  0  0  0  0  0  0  0  0
   21.5130    1.4583    0.2797 N   0  0  0  0  0  0  0  0  0  0  0  0
   20.0641    3.3379    0.8551 C   0  0  0  0  0  0  0  0  0  0  0  0
   18.8413    2.7061    0.7132 C   0  0  0  0  0  0  0  0  0  0  0  0
   18.6432    1.4140    0.3367 N   0  0  0  0  0  0  0  0  0  0  0  0
   17.4541    4.3623    1.2566 H   0  0  0  0  0  0  0  0  0  0  0  0
   15.5556    2.5089    0.7796 H   0  0  0  0  0  0  0  0  0  0  0  0
   15.6049   -2.5095   -0.7769 H   0  0  0  0  0  0  0  0  0  0  0  0
   17.5396   -4.3201   -1.2694 H   0  0  0  0  0  0  0  0  0  0  0  0
   20.1392   -4.2623   -1.2393 H   0  0  0  0  0  0  0  0  0  0  0  0
   22.7476   -4.2586   -1.2854 H   0  0  0  0  0  0  0  0  0  0  0  0
   24.6387   -2.3909   -0.8376 H   0  0  0  0  0  0  0  0  0  0  0  0
   24.5901    0.1361   -0.1673 H   0  0  0  0  0  0  0  0  0  0  0  0
   24.5870    2.6583    0.5177 H   0  0  0  0  0  0  0  0  0  0  0  0
   22.6599    4.4572    1.0789 H   0  0  0  0  0  0  0  0  0  0  0  0
   20.0538    4.3763    1.1539 H   0  0  0  0  0  0  0  0  0  0  0  0
  2  3  2  0  0  0  0
  3  4  1  0  0  0  0
  4  5  4  0  0  0  0
  5  6  4  0  0  0  0
  6  7  1  0  0  0  0
  7  8  2  0  0  0  0
  8  9  1  0  0  0  0
  1 10  1  0  0  0  0
  6 10  4  0  0  0  0
  9 10  4  0  0  0  0
  9 11  4  0  0  0  0
 11 12  4  0  0  0  0
 12 13  1  0  0  0  0
 13 14  2  0  0  0  0
 14 15  1  0  0  0  0
  1 16  1  0  0  0  0
 12 16  4  0  0  0  0
 15 16  4  0  0  0  0
 15 17  4  0  0  0  0
 17 18  4  0  0  0  0
 18 19  1  0  0  0  0
 19 20  2  0  0  0  0
 20 21  1  0  0  0  0
  1 22  1  0  0  0  0
 18 22  4  0  0  0  0
 21 22  4  0  0  0  0
 21 23  4  0  0  0  0
  2 24  1  0  0  0  0
 23 24  4  0  0  0  0
  1 25  1  0  0  0  0
  4 25  4  0  0  0  0
 24 25  4  0  0  0  0
  2 26  1  0  0  0  0
  3 27  1  0  0  0  0
  7 28  1  0  0  0  0
  8 29  1  0  0  0  0
 11 30  1  0  0  0  0
 13 31  1  0  0  0  0
 14 32  1  0  0  0  0
 17 33  1  0  0  0  0
 19 34  1  0  0  0  0
 20 35  1  0  0  0  0
 23 36  1  0  0  0  0
  5 37  1  0  0  0  0
 37 38  3  0  0  0  0
 40 41  2  0  0  0  0
 41 42  1  0  0  0  0
 38 43  1  0  0  0  0
 42 43  4  0  0  0  0
 43 44  4  0  0  0  0
 44 45  1  0  0  0  0
 45 46  2  0  0  0  0
 46 47  1  0  0  0  0
 39 48  1  0  0  0  0
 44 48  4  0  0  0  0
 47 48  4  0  0  0  0
 47 49  4  0  0  0  0
 49 50  4  0  0  0  0
 50 51  1  0  0  0  0
 51 52  2  0  0  0  0
 52 53  1  0  0  0  0
 39 54  1  0  0  0  0
 50 54  4  0  0  0  0
 53 54  4  0  0  0  0
 53 55  4  0  0  0  0
 55 56  4  0  0  0  0
 56 57  1  0  0  0  0
 57 58  2  0  0  0  0
 58 59  1  0  0  0  0
 39 60  1  0  0  0  0
 56 60  4  0  0  0  0
 59 60  4  0  0  0  0
 59 61  4  0  0  0  0
 40 62  1  0  0  0  0
 61 62  4  0  0  0  0
 39 63  1  0  0  0  0
 42 63  4  0  0  0  0
 62 63  4  0  0  0  0
 40 64  1  0  0  0  0
 41 65  1  0  0  0  0
 45 66  1  0  0  0  0
 46 67  1  0  0  0  0
 49 68  1  0  0  0  0
 51 69  1  0  0  0  0
 52 70  1  0  0  0  0
 55 71  1  0  0  0  0
 57 72  1  0  0  0  0
 58 73  1  0  0  0  0
 61 74  1  0  0  0  0
M  END
