278

C 49.812860 3.431512 0.072607
C 50.770542 2.484527 0.037143
C 50.071932 1.212964 -0.021635
C 50.735597 -0.029718 -0.067893
C 50.084912 -1.273456 -0.123056
C 50.687882 -2.558658 -0.172942
C 49.683005 -3.481558 -0.220538
C 48.444898 -2.779692 -0.200866
N 48.740525 -1.451514 -0.141434
C 47.176748 -3.340531 -0.236502
C 45.959068 -2.674520 -0.218247
C 44.681452 -3.371445 -0.260258
C 43.731990 -2.418252 -0.226076
C 44.436806 -1.147176 -0.163607
N 45.772849 -1.339620 -0.160886
C 43.790678 0.081595 -0.114049
C 44.416687 1.317177 -0.054408
C 43.812171 2.605691 -0.001420
C 44.813546 3.529906 0.046453
C 46.055381 2.830543 0.023860
N 45.763407 1.504738 -0.036688
C 47.323863 3.390754 0.056418
C 48.541904 2.728124 0.034645
N 48.740473 1.389073 -0.022139
H 49.919287 4.498272 0.119639
H 51.837377 2.596685 0.048659
H 51.745492 -2.737425 -0.172286
H 49.779355 -4.548901 -0.265427
H 48.068961 -0.692944 -0.114688
H 47.135167 -4.419986 -0.283947
H 44.569397 -4.437746 -0.308660
H 42.664102 -2.524170 -0.239980
H 42.710318 0.074316 -0.122663
H 42.754701 2.785796 -0.000690
H 44.715857 4.597256 0.093124
H 46.432949 0.745222 -0.065818
H 47.366963 4.470240 0.104149
C 126.220971 -3.417420 0.352754
C 125.260104 -2.475534 0.283475
C 125.953904 -1.207773 0.142820
C 125.285905 0.028842 0.036378
C 125.931829 1.268574 -0.102771
C 125.323888 2.547357 -0.216549
C 126.324785 3.468468 -0.332817
C 127.565358 2.771918 -0.292321
N 127.275126 1.448539 -0.152683
C 128.831014 3.332900 -0.378325
C 130.050909 2.671829 -0.339702
C 131.325648 3.368288 -0.438354
C 132.278442 2.420726 -0.363966
C 131.578486 1.153470 -0.221016
N 130.242016 1.342681 -0.210268
C 132.228992 -0.069251 -0.113351
C 131.607779 -1.301266 0.022182
C 132.217125 -2.583684 0.134416
C 131.219542 -3.506421 0.246758
C 129.975301 -2.812168 0.206470
N 130.262094 -1.490798 0.070738
C 128.709265 -3.372668 0.290050
C 127.489040 -2.714692 0.254062
N 127.285633 -1.381067 0.128292
H 126.118481 -4.480301 0.459105
H 124.193935 -2.588891 0.319707
H 124.265844 2.723286 -0.209094
H 126.224158 4.531252 -0.437100
H 127.949744 0.694580 -0.093076
H 128.868478 4.408022 -0.487424
H 131.433696 4.430472 -0.547858
H 133.345703 2.528211 -0.398516
H 133.309095 -0.059983 -0.137984
H 133.275046 -2.761020 0.128364
H 131.321389 -4.569549 0.348465
H 129.589643 -0.735646 0.011291
H 128.670345 -4.448164 0.395969
C 52.131862 -0.029845 -0.058723
C 53.350572 -0.014562 -0.048223
C 54.691155 0.000035 -0.035236
C 55.909970 0.021122 -0.024398
C 65.731308 0.001046 0.034170
C 66.950594 0.008142 0.033070
C 68.290596 0.018181 0.032357
C 69.509875 0.024422 0.029873
C 79.327398 -0.016468 0.053112
C 80.546666 -0.002841 0.054423
C 81.886533 0.013449 0.056051
C 83.105719 0.028062 0.050651
C 92.920230 -0.010677 -0.074747
C 94.139363 -0.001218 -0.092173
C 95.479194 0.010876 -0.106516
C 96.698444 0.018927 -0.116375
C 106.514478 0.007828 0.028701
C 107.733126 0.027749 0.063936
C 109.072641 0.044381 0.097536
C 110.291551 0.057654 0.125251
C 120.112466 -0.005545 0.151330
C 121.331208 0.006767 0.127083
C 122.671573 0.016905 0.099436
C 123.890039 0.027705 0.069312
C 58.290267 -3.400517 0.283357
C 57.313918 -2.475990 0.195711
C 57.987185 -1.194637 0.093399
C 57.304889 0.034376 -0.012171
C 57.951047 1.279007 -0.104780
C 57.353214 2.561748 -0.210197
C 58.363748 3.478408 -0.276924
C 59.598192 2.773802 -0.214162
N 59.296419 1.450355 -0.109968
C 60.866016 3.338430 -0.255381
C 62.094352 2.700077 -0.200703
C 63.351720 3.426389 -0.259370
C 64.328007 2.500953 -0.181138
C 63.654499 1.219951 -0.074883
N 62.319909 1.368304 -0.089681
C 64.336847 -0.009226 0.031408
C 63.690413 -1.252931 0.136305
C 64.288266 -2.535027 0.248958
C 63.277769 -3.451106 0.322982
C 62.043350 -2.746802 0.256573
N 62.345215 -1.423811 0.144961
C 60.775726 -3.311293 0.296577
C 59.547410 -2.673406 0.232489
N 59.322028 -1.342184 0.117545
H 58.204829 -4.466382 0.373541
H 56.249436 -2.609190 0.198043
H 56.296524 2.744213 -0.231171
H 58.272515 4.543768 -0.361995
H 59.951397 0.678731 -0.045059
H 60.895180 4.416231 -0.342753
H 63.437290 4.492359 -0.348287
H 65.392591 2.633300 -0.190958
H 65.344941 -2.717552 0.269322
H 63.369043 -4.515904 0.414630
H 61.690011 -0.652723 0.076218
H 60.746240 -4.388686 0.388561
C 71.881593 -3.398047 0.401158
C 70.907525 -2.472472 0.300027
C 71.584057 -1.196084 0.162529
C 70.904345 0.031891 0.029014
C 71.552786 1.271651 -0.106622
C 70.956413 2.551483 -0.248468
C 71.967963 3.463983 -0.348979
C 73.201435 2.759542 -0.270321
N 72.898200 1.440267 -0.124490
C 74.470159 3.320161 -0.331054
C 75.696878 2.680673 -0.257801
C 76.955918 3.402204 -0.334672
C 77.929870 2.477063 -0.229000
C 77.253191 1.200941 -0.089292
N 75.918999 1.351882 -0.109779
C 77.933015 -0.026548 0.048644
C 77.284878 -1.266602 0.182344
C 77.881284 -2.546482 0.323833
C 76.869761 -3.459512 0.419700
C 75.636215 -2.755363 0.338974
N 75.939492 -1.435716 0.196143
C 74.367427 -3.316108 0.396398
C 73.140601 -2.676416 0.324565
N 72.918352 -1.347296 0.180173
H 71.793570 -4.461302 0.516219
H 69.842657 -2.602048 0.313020
H 69.899944 2.735121 -0.269435
H 71.877859 4.526318 -0.466616
H 73.553203 0.670696 -0.039536
H 74.501635 4.394811 -0.450282
H 77.044024 4.465137 -0.452566
H 78.994735 2.606750 -0.240475
H 78.937764 -2.729832 0.347271
H 76.959989 -4.522029 0.535656
H 75.284501 -0.666242 0.110368
H 74.335798 -4.391056 0.512990
C 85.483395 -3.384339 0.455186
C 84.507900 -2.460408 0.353213
C 85.182285 -1.186383 0.185783
C 84.500083 0.039136 0.042292
C 85.145395 1.278263 -0.112281
C 84.545865 2.556434 -0.256086
C 85.555024 3.469404 -0.374763
C 86.790196 2.766833 -0.306707
N 86.490268 1.448275 -0.147657
C 88.057650 3.327454 -0.389504
C 89.285462 2.688211 -0.332745
C 90.543097 3.408828 -0.436661
C 91.518572 2.483802 -0.344630
C 90.844237 1.208790 -0.184894
N 89.509898 1.360238 -0.181182
C 91.526004 -0.018031 -0.051391
C 90.880447 -1.256584 0.107173
C 91.480056 -2.534743 0.250581
C 90.471095 -3.446671 0.378565
C 89.236022 -2.743534 0.315510
N 89.535730 -1.425635 0.150827
C 87.968761 -3.303401 0.405813
C 86.741015 -2.664293 0.347695
N 86.516616 -1.337343 0.186857
H 85.397197 -4.445559 0.588841
H 83.443371 -2.589586 0.384441
H 83.488992 2.738777 -0.265288
H 85.462180 4.530835 -0.498325
H 87.147715 0.680632 -0.064775
H 88.087157 4.401355 -0.515784
H 90.629306 4.471101 -0.561709
H 92.583086 2.612954 -0.376698
H 92.536846 -2.717723 0.254080
H 90.564008 -4.507756 0.504944
H 88.878204 -0.657802 0.070287
H 87.939428 -4.376664 0.537357
C 99.075577 -3.396784 0.281035
C 98.100013 -2.474196 0.167918
C 98.774434 -1.196873 0.028370
C 98.092836 0.028528 -0.118540
C 98.739240 1.267875 -0.266995
C 98.140747 2.543986 -0.431683
C 99.150761 3.457221 -0.540507
C 100.385371 2.757189 -0.442563
N 100.084296 1.439446 -0.279044
C 101.653146 3.320215 -0.499477
C 102.880720 2.686082 -0.398107
C 104.138392 3.410919 -0.465547
C 105.113551 2.491661 -0.325192
C 104.439042 1.215447 -0.176350
N 103.104866 1.360855 -0.223819
C 105.120531 -0.007203 -0.007484
C 104.474393 -1.248475 0.125287
C 105.072789 -2.524839 0.288328
C 104.063087 -3.441172 0.371244
C 102.828678 -2.742444 0.262076
N 103.129616 -1.422807 0.114558
C 101.561085 -3.307460 0.303021
C 100.333336 -2.672170 0.211832
N 100.108871 -1.344534 0.057385
H 98.989374 -4.459667 0.400833
H 97.035391 -2.606407 0.172631
H 97.083994 2.724707 -0.461793
H 99.058881 4.517383 -0.675152
H 100.740539 0.672865 -0.178248
H 101.683093 4.392778 -0.636565
H 104.224810 4.471948 -0.600588
H 106.177969 2.625277 -0.319452
H 106.129307 -2.703830 0.333541
H 104.155116 -4.502431 0.496895
H 102.473369 -0.656680 0.010411
H 101.531425 -4.381746 0.426016
C 112.656059 -3.360364 0.570028
C 111.683830 -2.435184 0.449749
C 112.362836 -1.161220 0.302104
C 111.685816 0.066047 0.149321
C 112.337536 1.304295 0.016486
C 111.745303 2.585350 -0.132008
C 112.759758 3.495524 -0.223162
C 113.991069 2.788329 -0.133723
N 113.683423 1.469894 0.010997
C 115.261254 3.345806 -0.189056
C 116.486763 2.703305 -0.117583
C 117.747142 3.421909 -0.199910
C 118.719439 2.493929 -0.104175
C 118.040532 1.219339 0.037878
N 116.706343 1.373986 0.027071
C 118.717614 -0.010085 0.169713
C 118.066086 -1.246439 0.318654
C 118.658184 -2.527446 0.468013
C 117.643583 -3.434850 0.582679
C 116.412317 -2.726336 0.504069
N 116.719977 -1.409623 0.345749
C 115.141934 -3.282481 0.572439
C 113.916521 -2.641266 0.492091
N 113.696746 -1.313610 0.331368
H 112.565901 -4.422032 0.697498
H 110.618737 -2.563417 0.456931
H 110.689467 2.771333 -0.162563
H 112.673160 4.558005 -0.342208
H 114.335137 0.698268 0.103034
H 115.295610 4.420498 -0.307262
H 117.837241 4.484933 -0.315498
H 119.784524 2.620905 -0.122501
H 119.714039 -2.715130 0.484653
H 117.730118 -4.496459 0.709357
H 116.068228 -0.637588 0.257469
H 115.107788 -4.355968 0.701260
