
  xtb     11192113563D
 xtb: 6.4.1 (bd6e46d)
154185  0     0  0            999 V2000
   21.7115    0.0033   -0.0084 Cu  0  0  0  0  0  0  0  0  0  0  0  0
   24.2395   -3.4219    0.0486 C   0  0  0  0  0  0  0  0  0  0  0  0
   25.1915   -2.4587    0.0472 C   0  0  0  0  0  0  0  0  0  0  0  0
   24.5018   -1.2008    0.0225 C   0  0  0  0  0  0  0  0  0  0  0  0
   25.1479    0.0440    0.0061 C   0  0  0  0  0  0  0  0  0  0  0  0
   24.4724    1.2731   -0.0093 C   0  0  0  0  0  0  0  0  0  0  0  0
   25.1322    2.5473   -0.0184 C   0  0  0  0  0  0  0  0  0  0  0  0
   24.1576    3.4876   -0.0198 C   0  0  0  0  0  0  0  0  0  0  0  0
   22.9058    2.7858   -0.0126 C   0  0  0  0  0  0  0  0  0  0  0  0
   23.1309    1.4436   -0.0078 N   0  0  0  0  0  0  0  0  0  0  0  0
   21.6694    3.4064   -0.0081 C   0  0  0  0  0  0  0  0  0  0  0  0
   20.4494    2.7542   -0.0084 C   0  0  0  0  0  0  0  0  0  0  0  0
   19.1761    3.4220   -0.0070 C   0  0  0  0  0  0  0  0  0  0  0  0
   18.2297    2.4558   -0.0189 C   0  0  0  0  0  0  0  0  0  0  0  0
   18.9236    1.1964   -0.0264 C   0  0  0  0  0  0  0  0  0  0  0  0
   20.2635    1.4099   -0.0177 N   0  0  0  0  0  0  0  0  0  0  0  0
   18.2972   -0.0375   -0.0436 C   0  0  0  0  0  0  0  0  0  0  0  0
   18.9532   -1.2561   -0.0441 C   0  0  0  0  0  0  0  0  0  0  0  0
   18.2898   -2.5317   -0.0594 C   0  0  0  0  0  0  0  0  0  0  0  0
   19.2590   -3.4751   -0.0433 C   0  0  0  0  0  0  0  0  0  0  0  0
   20.5156   -2.7770   -0.0193 C   0  0  0  0  0  0  0  0  0  0  0  0
   20.2977   -1.4374   -0.0225 N   0  0  0  0  0  0  0  0  0  0  0  0
   21.7505   -3.4000    0.0074 C   0  0  0  0  0  0  0  0  0  0  0  0
   22.9715   -2.7501    0.0243 C   0  0  0  0  0  0  0  0  0  0  0  0
   23.1648   -1.4031    0.0117 N   0  0  0  0  0  0  0  0  0  0  0  0
   24.3652   -4.4873    0.0637 H   0  0  0  0  0  0  0  0  0  0  0  0
   26.2586   -2.5671    0.0609 H   0  0  0  0  0  0  0  0  0  0  0  0
   26.1966    2.6812   -0.0219 H   0  0  0  0  0  0  0  0  0  0  0  0
   24.2578    4.5556   -0.0256 H   0  0  0  0  0  0  0  0  0  0  0  0
   21.6569    4.4869   -0.0063 H   0  0  0  0  0  0  0  0  0  0  0  0
   19.0480    4.4873    0.0015 H   0  0  0  0  0  0  0  0  0  0  0  0
   17.1620    2.5620   -0.0220 H   0  0  0  0  0  0  0  0  0  0  0  0
   17.2171   -0.0505   -0.0558 H   0  0  0  0  0  0  0  0  0  0  0  0
   17.2251   -2.6634   -0.0793 H   0  0  0  0  0  0  0  0  0  0  0  0
   19.1564   -4.5432   -0.0473 H   0  0  0  0  0  0  0  0  0  0  0  0
   21.7636   -4.4804    0.0137 H   0  0  0  0  0  0  0  0  0  0  0  0
   62.0654    0.0343   -0.0081 Cu  0  0  0  0  0  0  0  0  0  0  0  0
   59.5453    3.4032    0.6448 C   0  0  0  0  0  0  0  0  0  0  0  0
   58.5910    2.4590    0.4668 C   0  0  0  0  0  0  0  0  0  0  0  0
   59.2778    1.2225    0.2253 C   0  0  0  0  0  0  0  0  0  0  0  0
   58.6288    0.0002   -0.0029 C   0  0  0  0  0  0  0  0  0  0  0  0
   59.3013   -1.2098   -0.2269 C   0  0  0  0  0  0  0  0  0  0  0  0
   58.6384   -2.4614   -0.4578 C   0  0  0  0  0  0  0  0  0  0  0  0
   59.6108   -3.3880   -0.6306 C   0  0  0  0  0  0  0  0  0  0  0  0
   60.8644   -2.7004   -0.5056 C   0  0  0  0  0  0  0  0  0  0  0  0
   60.6425   -1.3802   -0.2609 N   0  0  0  0  0  0  0  0  0  0  0  0
   62.0992   -3.3130   -0.6221 C   0  0  0  0  0  0  0  0  0  0  0  0
   63.3208   -2.6733   -0.5113 C   0  0  0  0  0  0  0  0  0  0  0  0
   64.5923   -3.3319   -0.6394 C   0  0  0  0  0  0  0  0  0  0  0  0
   65.5411   -2.3821   -0.4748 C   0  0  0  0  0  0  0  0  0  0  0  0
   64.8504   -1.1420   -0.2453 C   0  0  0  0  0  0  0  0  0  0  0  0
   63.5099   -1.3507   -0.2727 N   0  0  0  0  0  0  0  0  0  0  0  0
   65.4799    0.0717   -0.0313 C   0  0  0  0  0  0  0  0  0  0  0  0
   64.8269    1.2707    0.1949 C   0  0  0  0  0  0  0  0  0  0  0  0
   65.4935    2.5248    0.4199 C   0  0  0  0  0  0  0  0  0  0  0  0
   64.5266    3.4522    0.6051 C   0  0  0  0  0  0  0  0  0  0  0  0
   63.2681    2.7663    0.4922 C   0  0  0  0  0  0  0  0  0  0  0  0
   63.4828    1.4495    0.2435 N   0  0  0  0  0  0  0  0  0  0  0  0
   62.0345    3.3790    0.6217 C   0  0  0  0  0  0  0  0  0  0  0  0
   60.8118    2.7416    0.5107 C   0  0  0  0  0  0  0  0  0  0  0  0
   60.6154    1.4190    0.2578 N   0  0  0  0  0  0  0  0  0  0  0  0
   59.4222    4.4494    0.8478 H   0  0  0  0  0  0  0  0  0  0  0  0
   57.5241    2.5671    0.4938 H   0  0  0  0  0  0  0  0  0  0  0  0
   57.5737   -2.5907   -0.4808 H   0  0  0  0  0  0  0  0  0  0  0  0
   59.5080   -4.4380   -0.8252 H   0  0  0  0  0  0  0  0  0  0  0  0
   62.1091   -4.3758   -0.8170 H   0  0  0  0  0  0  0  0  0  0  0  0
   64.7179   -4.3804   -0.8298 H   0  0  0  0  0  0  0  0  0  0  0  0
   66.6086   -2.4877   -0.5016 H   0  0  0  0  0  0  0  0  0  0  0  0
   66.5600    0.0838   -0.0399 H   0  0  0  0  0  0  0  0  0  0  0  0
   66.5587    2.6540    0.4307 H   0  0  0  0  0  0  0  0  0  0  0  0
   64.6318    4.5022    0.7995 H   0  0  0  0  0  0  0  0  0  0  0  0
   62.0240    4.4404    0.8236 H   0  0  0  0  0  0  0  0  0  0  0  0
   26.5451    0.0591    0.0061 C   0  0  0  0  0  0  0  0  0  0  0  0
   27.7633    0.0672    0.0011 C   0  0  0  0  0  0  0  0  0  0  0  0
   29.1047    0.0731   -0.0016 C   0  0  0  0  0  0  0  0  0  0  0  0
   30.3231    0.0684   -0.0035 C   0  0  0  0  0  0  0  0  0  0  0  0
   39.9993    0.0451   -0.0208 C   0  0  0  0  0  0  0  0  0  0  0  0
   41.2177    0.0417   -0.0205 C   0  0  0  0  0  0  0  0  0  0  0  0
   42.5585    0.0369   -0.0201 C   0  0  0  0  0  0  0  0  0  0  0  0
   43.7769    0.0329   -0.0187 C   0  0  0  0  0  0  0  0  0  0  0  0
   53.4534   -0.0113   -0.0104 C   0  0  0  0  0  0  0  0  0  0  0  0
   54.6716   -0.0118   -0.0102 C   0  0  0  0  0  0  0  0  0  0  0  0
   56.0132   -0.0121   -0.0071 C   0  0  0  0  0  0  0  0  0  0  0  0
   57.2313   -0.0109   -0.0062 C   0  0  0  0  0  0  0  0  0  0  0  0
   35.1615    0.0570   -0.0153 Cu  0  0  0  0  0  0  0  0  0  0  0  0
   32.6650   -3.3691    0.3783 C   0  0  0  0  0  0  0  0  0  0  0  0
   31.7025   -2.4222    0.2727 C   0  0  0  0  0  0  0  0  0  0  0  0
   32.3788   -1.1650    0.1285 C   0  0  0  0  0  0  0  0  0  0  0  0
   31.7196    0.0661   -0.0081 C   0  0  0  0  0  0  0  0  0  0  0  0
   32.3843    1.2937   -0.1480 C   0  0  0  0  0  0  0  0  0  0  0  0
   31.7140    2.5542   -0.2896 C   0  0  0  0  0  0  0  0  0  0  0  0
   32.6810    3.4959   -0.4014 C   0  0  0  0  0  0  0  0  0  0  0  0
   33.9379    2.8080   -0.3269 C   0  0  0  0  0  0  0  0  0  0  0  0
   33.7238    1.4729   -0.1728 N   0  0  0  0  0  0  0  0  0  0  0  0
   35.1692    3.4332   -0.4034 C   0  0  0  0  0  0  0  0  0  0  0  0
   36.3976    2.8013   -0.3344 C   0  0  0  0  0  0  0  0  0  0  0  0
   37.6578    3.4824   -0.4168 C   0  0  0  0  0  0  0  0  0  0  0  0
   38.6203    2.5356   -0.3090 C   0  0  0  0  0  0  0  0  0  0  0  0
   37.9440    1.2791   -0.1611 C   0  0  0  0  0  0  0  0  0  0  0  0
   36.6054    1.4652   -0.1798 N   0  0  0  0  0  0  0  0  0  0  0  0
   38.6031    0.0486   -0.0189 C   0  0  0  0  0  0  0  0  0  0  0  0
   37.9384   -1.1790    0.1237 C   0  0  0  0  0  0  0  0  0  0  0  0
   38.6089   -2.4391    0.2686 C   0  0  0  0  0  0  0  0  0  0  0  0
   37.6419   -3.3812    0.3771 C   0  0  0  0  0  0  0  0  0  0  0  0
   36.3849   -2.6939    0.2980 C   0  0  0  0  0  0  0  0  0  0  0  0
   36.5990   -1.3587    0.1445 N   0  0  0  0  0  0  0  0  0  0  0  0
   35.1535   -3.3195    0.3698 C   0  0  0  0  0  0  0  0  0  0  0  0
   33.9252   -2.6877    0.2988 C   0  0  0  0  0  0  0  0  0  0  0  0
   33.7174   -1.3513    0.1472 N   0  0  0  0  0  0  0  0  0  0  0  0
   32.5513   -4.4290    0.4987 H   0  0  0  0  0  0  0  0  0  0  0  0
   30.6365   -2.5412    0.2885 H   0  0  0  0  0  0  0  0  0  0  0  0
   30.6485    2.6788   -0.3007 H   0  0  0  0  0  0  0  0  0  0  0  0
   32.5721    4.5563   -0.5230 H   0  0  0  0  0  0  0  0  0  0  0  0
   35.1719    4.5067   -0.5275 H   0  0  0  0  0  0  0  0  0  0  0  0
   37.7716    4.5420   -0.5402 H   0  0  0  0  0  0  0  0  0  0  0  0
   39.6863    2.6546   -0.3254 H   0  0  0  0  0  0  0  0  0  0  0  0
   39.6743   -2.5634    0.2830 H   0  0  0  0  0  0  0  0  0  0  0  0
   37.7508   -4.4415    0.4993 H   0  0  0  0  0  0  0  0  0  0  0  0
   35.1508   -4.3932    0.4925 H   0  0  0  0  0  0  0  0  0  0  0  0
   48.6147    0.0106   -0.0176 Cu  0  0  0  0  0  0  0  0  0  0  0  0
   46.1101   -3.4076    0.3934 C   0  0  0  0  0  0  0  0  0  0  0  0
   45.1498   -2.4591    0.2812 C   0  0  0  0  0  0  0  0  0  0  0  0
   45.8291   -1.2047    0.1289 C   0  0  0  0  0  0  0  0  0  0  0  0
   45.1730    0.0268   -0.0188 C   0  0  0  0  0  0  0  0  0  0  0  0
   45.8408    1.2522   -0.1652 C   0  0  0  0  0  0  0  0  0  0  0  0
   45.1734    2.5132   -0.3160 C   0  0  0  0  0  0  0  0  0  0  0  0
   46.1426    3.4529   -0.4256 C   0  0  0  0  0  0  0  0  0  0  0  0
   47.3980    2.7632   -0.3413 C   0  0  0  0  0  0  0  0  0  0  0  0
   47.1806    1.4289   -0.1841 N   0  0  0  0  0  0  0  0  0  0  0  0
   48.6308    3.3861   -0.4108 C   0  0  0  0  0  0  0  0  0  0  0  0
   49.8576    2.7521   -0.3331 C   0  0  0  0  0  0  0  0  0  0  0  0
   51.1195    3.4311   -0.4081 C   0  0  0  0  0  0  0  0  0  0  0  0
   52.0798    2.4827   -0.2956 C   0  0  0  0  0  0  0  0  0  0  0  0
   51.4006    1.2270   -0.1526 C   0  0  0  0  0  0  0  0  0  0  0  0
   50.0623    1.4157   -0.1779 N   0  0  0  0  0  0  0  0  0  0  0  0
   52.0566   -0.0056   -0.0155 C   0  0  0  0  0  0  0  0  0  0  0  0
   51.3889   -1.2321    0.1191 C   0  0  0  0  0  0  0  0  0  0  0  0
   52.0562   -2.4943    0.2613 C   0  0  0  0  0  0  0  0  0  0  0  0
   51.0869   -3.4336    0.3730 C   0  0  0  0  0  0  0  0  0  0  0  0
   49.8315   -2.7427    0.2984 C   0  0  0  0  0  0  0  0  0  0  0  0
   50.0489   -1.4082    0.1430 N   0  0  0  0  0  0  0  0  0  0  0  0
   48.5988   -3.3646    0.3783 C   0  0  0  0  0  0  0  0  0  0  0  0
   47.3719   -2.7299    0.3085 C   0  0  0  0  0  0  0  0  0  0  0  0
   47.1673   -1.3939    0.1490 N   0  0  0  0  0  0  0  0  0  0  0  0
   45.9937   -4.4664    0.5212 H   0  0  0  0  0  0  0  0  0  0  0  0
   44.0835   -2.5756    0.2975 H   0  0  0  0  0  0  0  0  0  0  0  0
   44.1083    2.6396   -0.3330 H   0  0  0  0  0  0  0  0  0  0  0  0
   46.0363    4.5130   -0.5513 H   0  0  0  0  0  0  0  0  0  0  0  0
   48.6361    4.4594   -0.5364 H   0  0  0  0  0  0  0  0  0  0  0  0
   51.2358    4.4905   -0.5307 H   0  0  0  0  0  0  0  0  0  0  0  0
   53.1461    2.5998   -0.3073 H   0  0  0  0  0  0  0  0  0  0  0  0
   53.1213   -2.6214    0.2727 H   0  0  0  0  0  0  0  0  0  0  0  0
   51.1931   -4.4942    0.4950 H   0  0  0  0  0  0  0  0  0  0  0  0
   48.5938   -4.4377    0.5056 H   0  0  0  0  0  0  0  0  0  0  0  0
  2  3  2  0  0  0  0
  3  4  1  0  0  0  0
  4  5  4  0  0  0  0
  5  6  4  0  0  0  0
  6  7  1  0  0  0  0
  7  8  2  0  0  0  0
  8  9  1  0  0  0  0
  1 10  1  0  0  0  0
  6 10  4  0  0  0  0
  9 10  4  0  0  0  0
  9 11  4  0  0  0  0
 11 12  4  0  0  0  0
 12 13  1  0  0  0  0
 13 14  2  0  0  0  0
 14 15  1  0  0  0  0
  1 16  1  0  0  0  0
 12 16  4  0  0  0  0
 15 16  4  0  0  0  0
 15 17  4  0  0  0  0
 17 18  4  0  0  0  0
 18 19  1  0  0  0  0
 19 20  2  0  0  0  0
 20 21  1  0  0  0  0
  1 22  1  0  0  0  0
 18 22  4  0  0  0  0
 21 22  4  0  0  0  0
 21 23  4  0  0  0  0
  2 24  1  0  0  0  0
 23 24  4  0  0  0  0
  1 25  1  0  0  0  0
  4 25  4  0  0  0  0
 24 25  4  0  0  0  0
  2 26  1  0  0  0  0
  3 27  1  0  0  0  0
  7 28  1  0  0  0  0
  8 29  1  0  0  0  0
 11 30  1  0  0  0  0
 13 31  1  0  0  0  0
 14 32  1  0  0  0  0
 17 33  1  0  0  0  0
 19 34  1  0  0  0  0
 20 35  1  0  0  0  0
 23 36  1  0  0  0  0
 38 39  2  0  0  0  0
 39 40  1  0  0  0  0
 40 41  4  0  0  0  0
 41 42  4  0  0  0  0
 42 43  1  0  0  0  0
 43 44  2  0  0  0  0
 44 45  1  0  0  0  0
 37 46  1  0  0  0  0
 42 46  4  0  0  0  0
 45 46  4  0  0  0  0
 45 47  4  0  0  0  0
 47 48  4  0  0  0  0
 48 49  1  0  0  0  0
 49 50  2  0  0  0  0
 50 51  1  0  0  0  0
 37 52  1  0  0  0  0
 48 52  4  0  0  0  0
 51 52  4  0  0  0  0
 51 53  4  0  0  0  0
 53 54  4  0  0  0  0
 54 55  1  0  0  0  0
 55 56  2  0  0  0  0
 56 57  1  0  0  0  0
 37 58  1  0  0  0  0
 54 58  4  0  0  0  0
 57 58  4  0  0  0  0
 57 59  4  0  0  0  0
 38 60  1  0  0  0  0
 59 60  4  0  0  0  0
 37 61  1  0  0  0  0
 40 61  4  0  0  0  0
 60 61  4  0  0  0  0
 38 62  1  0  0  0  0
 39 63  1  0  0  0  0
 43 64  1  0  0  0  0
 44 65  1  0  0  0  0
 47 66  1  0  0  0  0
 49 67  1  0  0  0  0
 50 68  1  0  0  0  0
 53 69  1  0  0  0  0
 55 70  1  0  0  0  0
 56 71  1  0  0  0  0
 59 72  1  0  0  0  0
  5 73  1  0  0  0  0
 73 74  3  0  0  0  0
 74 75  4  0  0  0  0
 75 76  3  0  0  0  0
 77 78  3  0  0  0  0
 78 79  4  0  0  0  0
 79 80  3  0  0  0  0
 81 82  3  0  0  0  0
 82 83  4  0  0  0  0
 41 84  1  0  0  0  0
 83 84  3  0  0  0  0
 86 87  2  0  0  0  0
 87 88  1  0  0  0  0
 76 89  1  0  0  0  0
 88 89  4  0  0  0  0
 89 90  4  0  0  0  0
 90 91  1  0  0  0  0
 91 92  2  0  0  0  0
 92 93  1  0  0  0  0
 85 94  1  0  0  0  0
 90 94  4  0  0  0  0
 93 94  4  0  0  0  0
 93 95  4  0  0  0  0
 95 96  4  0  0  0  0
 96 97  1  0  0  0  0
 97 98  2  0  0  0  0
 98 99  1  0  0  0  0
 85100  1  0  0  0  0
 96100  4  0  0  0  0
 99100  4  0  0  0  0
 77101  1  0  0  0  0
 99101  4  0  0  0  0
101102  4  0  0  0  0
102103  1  0  0  0  0
103104  2  0  0  0  0
104105  1  0  0  0  0
 85106  1  0  0  0  0
102106  4  0  0  0  0
105106  4  0  0  0  0
105107  4  0  0  0  0
 86108  1  0  0  0  0
107108  4  0  0  0  0
 85109  1  0  0  0  0
 88109  4  0  0  0  0
108109  4  0  0  0  0
 86110  1  0  0  0  0
 87111  1  0  0  0  0
 91112  1  0  0  0  0
 92113  1  0  0  0  0
 95114  1  0  0  0  0
 97115  1  0  0  0  0
 98116  1  0  0  0  0
103117  1  0  0  0  0
104118  1  0  0  0  0
107119  1  0  0  0  0
121122  2  0  0  0  0
122123  1  0  0  0  0
 80124  1  0  0  0  0
123124  4  0  0  0  0
124125  4  0  0  0  0
125126  1  0  0  0  0
126127  2  0  0  0  0
127128  1  0  0  0  0
120129  1  0  0  0  0
125129  4  0  0  0  0
128129  4  0  0  0  0
128130  4  0  0  0  0
130131  4  0  0  0  0
131132  1  0  0  0  0
132133  2  0  0  0  0
133134  1  0  0  0  0
120135  1  0  0  0  0
131135  4  0  0  0  0
134135  4  0  0  0  0
 81136  1  0  0  0  0
134136  4  0  0  0  0
136137  4  0  0  0  0
137138  1  0  0  0  0
138139  2  0  0  0  0
139140  1  0  0  0  0
120141  1  0  0  0  0
137141  4  0  0  0  0
140141  4  0  0  0  0
140142  4  0  0  0  0
121143  1  0  0  0  0
142143  4  0  0  0  0
120144  1  0  0  0  0
123144  4  0  0  0  0
143144  4  0  0  0  0
121145  1  0  0  0  0
122146  1  0  0  0  0
126147  1  0  0  0  0
127148  1  0  0  0  0
130149  1  0  0  0  0
132150  1  0  0  0  0
133151  1  0  0  0  0
138152  1  0  0  0  0
139153  1  0  0  0  0
142154  1  0  0  0  0
M  END
