
  xtb     11192123323D
 xtb: 6.4.1 (bd6e46d)
222269  0     0  0            999 V2000
   43.3163    0.4224    0.4232 Co  0  0  0  0  0  0  0  0  0  0  0  0
   45.9825   -2.0022    2.5737 C   0  0  0  0  0  0  0  0  0  0  0  0
   46.8506   -1.4613    1.6873 C   0  0  0  0  0  0  0  0  0  0  0  0
   46.0887   -0.5738    0.8628 C   0  0  0  0  0  0  0  0  0  0  0  0
   46.6669    0.2801   -0.0834 C   0  0  0  0  0  0  0  0  0  0  0  0
   45.9468    1.3488   -0.6273 C   0  0  0  0  0  0  0  0  0  0  0  0
   46.5583    2.4279   -1.3394 C   0  0  0  0  0  0  0  0  0  0  0  0
   45.5788    3.3267   -1.5929 C   0  0  0  0  0  0  0  0  0  0  0  0
   44.3672    2.7634   -1.0789 C   0  0  0  0  0  0  0  0  0  0  0  0
   44.6113    1.5605   -0.4703 N   0  0  0  0  0  0  0  0  0  0  0  0
   43.1192    3.3093   -1.2979 C   0  0  0  0  0  0  0  0  0  0  0  0
   41.9481    2.6382   -1.0092 C   0  0  0  0  0  0  0  0  0  0  0  0
   40.6544    3.0715   -1.4502 C   0  0  0  0  0  0  0  0  0  0  0  0
   39.7833    2.0975   -1.1043 C   0  0  0  0  0  0  0  0  0  0  0  0
   40.5419    1.0991   -0.4082 C   0  0  0  0  0  0  0  0  0  0  0  0
   41.8656    1.4344   -0.3685 N   0  0  0  0  0  0  0  0  0  0  0  0
   39.9734    0.0182    0.2352 C   0  0  0  0  0  0  0  0  0  0  0  0
   40.6849   -0.7896    1.0994 C   0  0  0  0  0  0  0  0  0  0  0  0
   40.0755   -1.7514    1.9714 C   0  0  0  0  0  0  0  0  0  0  0  0
   41.0583   -2.2246    2.7699 C   0  0  0  0  0  0  0  0  0  0  0  0
   42.2712   -1.5882    2.3460 C   0  0  0  0  0  0  0  0  0  0  0  0
   42.0286   -0.7068    1.3306 N   0  0  0  0  0  0  0  0  0  0  0  0
   43.5197   -1.9208    2.8317 C   0  0  0  0  0  0  0  0  0  0  0  0
   44.6901   -1.4791    2.2497 C   0  0  0  0  0  0  0  0  0  0  0  0
   44.7731   -0.5894    1.2112 N   0  0  0  0  0  0  0  0  0  0  0  0
   46.1766   -2.7038    3.3617 H   0  0  0  0  0  0  0  0  0  0  0  0
   47.9107   -1.6034    1.6097 H   0  0  0  0  0  0  0  0  0  0  0  0
   47.6035    2.4871   -1.5696 H   0  0  0  0  0  0  0  0  0  0  0  0
   45.6467    4.2711   -2.0969 H   0  0  0  0  0  0  0  0  0  0  0  0
   43.0564    4.2623   -1.8008 H   0  0  0  0  0  0  0  0  0  0  0  0
   40.4661    3.9897   -1.9723 H   0  0  0  0  0  0  0  0  0  0  0  0
   38.7246    2.0497   -1.2713 H   0  0  0  0  0  0  0  0  0  0  0  0
   38.9114   -0.1445    0.1321 H   0  0  0  0  0  0  0  0  0  0  0  0
   39.0310   -1.9964    1.9708 H   0  0  0  0  0  0  0  0  0  0  0  0
   40.9956   -2.9496    3.5582 H   0  0  0  0  0  0  0  0  0  0  0  0
   43.5851   -2.6296    3.6432 H   0  0  0  0  0  0  0  0  0  0  0  0
   96.5265   -0.2698    0.3809 Co  0  0  0  0  0  0  0  0  0  0  0  0
   93.7579    1.6607    2.8824 C   0  0  0  0  0  0  0  0  0  0  0  0
   92.8965    1.1023    2.0007 C   0  0  0  0  0  0  0  0  0  0  0  0
   93.6941    0.3825    1.0550 C   0  0  0  0  0  0  0  0  0  0  0  0
   93.1487   -0.4252    0.0523 C   0  0  0  0  0  0  0  0  0  0  0  0
   93.9387   -1.3232   -0.6693 C   0  0  0  0  0  0  0  0  0  0  0  0
   93.3968   -2.3378   -1.5195 C   0  0  0  0  0  0  0  0  0  0  0  0
   94.4408   -3.0935   -1.9310 C   0  0  0  0  0  0  0  0  0  0  0  0
   95.6173   -2.5009   -1.3707 C   0  0  0  0  0  0  0  0  0  0  0  0
   95.2953   -1.4224   -0.5908 N   0  0  0  0  0  0  0  0  0  0  0  0
   96.8970   -2.9102   -1.6844 C   0  0  0  0  0  0  0  0  0  0  0  0
   98.0207   -2.1908   -1.3341 C   0  0  0  0  0  0  0  0  0  0  0  0
   99.3314   -2.4715   -1.8435 C   0  0  0  0  0  0  0  0  0  0  0  0
  100.1355   -1.4777   -1.4054 C   0  0  0  0  0  0  0  0  0  0  0  0
   99.3217   -0.6223   -0.5913 C   0  0  0  0  0  0  0  0  0  0  0  0
   98.0292   -1.0636   -0.5615 N   0  0  0  0  0  0  0  0  0  0  0  0
   99.8213    0.4384    0.1365 C   0  0  0  0  0  0  0  0  0  0  0  0
   99.0734    1.1096    1.0822 C   0  0  0  0  0  0  0  0  0  0  0  0
   99.6292    2.0550    2.0064 C   0  0  0  0  0  0  0  0  0  0  0  0
   98.6396    2.3784    2.8681 C   0  0  0  0  0  0  0  0  0  0  0  0
   97.4728    1.6657    2.4363 C   0  0  0  0  0  0  0  0  0  0  0  0
   97.7513    0.8895    1.3467 N   0  0  0  0  0  0  0  0  0  0  0  0
   96.2249    1.8308    3.0011 C   0  0  0  0  0  0  0  0  0  0  0  0
   95.0749    1.3140    2.4413 C   0  0  0  0  0  0  0  0  0  0  0  0
   95.0211    0.5133    1.3310 N   0  0  0  0  0  0  0  0  0  0  0  0
   93.5425    2.2673    3.7404 H   0  0  0  0  0  0  0  0  0  0  0  0
   91.8244    1.1342    1.9923 H   0  0  0  0  0  0  0  0  0  0  0  0
   92.3545   -2.4481   -1.7439 H   0  0  0  0  0  0  0  0  0  0  0  0
   94.4374   -3.9548   -2.5704 H   0  0  0  0  0  0  0  0  0  0  0  0
   97.0182   -3.7841   -2.3063 H   0  0  0  0  0  0  0  0  0  0  0  0
   99.5738   -3.3090   -2.4688 H   0  0  0  0  0  0  0  0  0  0  0  0
  101.1828   -1.3292   -1.5846 H   0  0  0  0  0  0  0  0  0  0  0  0
  100.8626    0.6978    0.0226 H   0  0  0  0  0  0  0  0  0  0  0  0
  100.6475    2.3925    1.9916 H   0  0  0  0  0  0  0  0  0  0  0  0
   98.6676    3.0467    3.7069 H   0  0  0  0  0  0  0  0  0  0  0  0
   96.1329    2.4622    3.8717 H   0  0  0  0  0  0  0  0  0  0  0  0
   48.0139    0.1067   -0.4169 C   0  0  0  0  0  0  0  0  0  0  0  0
   49.1688   -0.0968   -0.7312 C   0  0  0  0  0  0  0  0  0  0  0  0
   58.4976   -0.5272   -0.2820 C   0  0  0  0  0  0  0  0  0  0  0  0
   59.6293   -0.3723    0.1304 C   0  0  0  0  0  0  0  0  0  0  0  0
   69.0455    0.2637    0.8296 C   0  0  0  0  0  0  0  0  0  0  0  0
   70.2529    0.2637    0.7152 C   0  0  0  0  0  0  0  0  0  0  0  0
   79.8463    0.3805   -0.3547 C   0  0  0  0  0  0  0  0  0  0  0  0
   81.0508    0.3935   -0.4956 C   0  0  0  0  0  0  0  0  0  0  0  0
   90.5763   -0.2662   -0.3790 C   0  0  0  0  0  0  0  0  0  0  0  0
   91.7674   -0.3723   -0.1751 C   0  0  0  0  0  0  0  0  0  0  0  0
   53.8550   -0.7393   -1.3454 Co  0  0  0  0  0  0  0  0  0  0  0  0
   51.1868   -3.7238   -0.1311 C   0  0  0  0  0  0  0  0  0  0  0  0
   50.3230   -2.6843   -0.2173 C   0  0  0  0  0  0  0  0  0  0  0  0
   51.0877   -1.5559   -0.6521 C   0  0  0  0  0  0  0  0  0  0  0  0
   50.5144   -0.3336   -1.0262 C   0  0  0  0  0  0  0  0  0  0  0  0
   51.2381    0.5941   -1.7850 C   0  0  0  0  0  0  0  0  0  0  0  0
   50.6333    1.6719   -2.5043 C   0  0  0  0  0  0  0  0  0  0  0  0
   51.6162    2.2463   -3.2375 C   0  0  0  0  0  0  0  0  0  0  0  0
   52.8240    1.5497   -2.9152 C   0  0  0  0  0  0  0  0  0  0  0  0
   52.5724    0.5261   -2.0404 N   0  0  0  0  0  0  0  0  0  0  0  0
   54.0790    1.9590   -3.3195 C   0  0  0  0  0  0  0  0  0  0  0  0
   55.2428    1.4477   -2.7811 C   0  0  0  0  0  0  0  0  0  0  0  0
   56.5335    2.0380   -2.9632 C   0  0  0  0  0  0  0  0  0  0  0  0
   57.3807    1.3756   -2.1398 C   0  0  0  0  0  0  0  0  0  0  0  0
   56.6110    0.3505   -1.5045 C   0  0  0  0  0  0  0  0  0  0  0  0
   55.3102    0.4026   -1.8980 N   0  0  0  0  0  0  0  0  0  0  0  0
   57.1733   -0.6552   -0.7070 C   0  0  0  0  0  0  0  0  0  0  0  0
   56.4605   -1.8277   -0.4267 C   0  0  0  0  0  0  0  0  0  0  0  0
   57.0720   -3.0309    0.0458 C   0  0  0  0  0  0  0  0  0  0  0  0
   56.1062   -3.9803    0.0454 C   0  0  0  0  0  0  0  0  0  0  0  0
   54.9001   -3.3334   -0.3726 C   0  0  0  0  0  0  0  0  0  0  0  0
   55.1383   -2.0198   -0.6801 N   0  0  0  0  0  0  0  0  0  0  0  0
   53.6530   -3.9232   -0.3209 C   0  0  0  0  0  0  0  0  0  0  0  0
   52.4804   -3.2078   -0.4598 C   0  0  0  0  0  0  0  0  0  0  0  0
   52.4007   -1.8818   -0.7938 N   0  0  0  0  0  0  0  0  0  0  0  0
   50.9878   -4.7401    0.1486 H   0  0  0  0  0  0  0  0  0  0  0  0
   49.2636   -2.6738   -0.0506 H   0  0  0  0  0  0  0  0  0  0  0  0
   49.5895    1.9136   -2.4710 H   0  0  0  0  0  0  0  0  0  0  0  0
   51.5517    3.0761   -3.9142 H   0  0  0  0  0  0  0  0  0  0  0  0
   54.1521    2.7883   -4.0067 H   0  0  0  0  0  0  0  0  0  0  0  0
   56.7414    2.8620   -3.6177 H   0  0  0  0  0  0  0  0  0  0  0  0
   58.4336    1.5220   -1.9985 H   0  0  0  0  0  0  0  0  0  0  0  0
   58.1099   -3.1265    0.2965 H   0  0  0  0  0  0  0  0  0  0  0  0
   56.1805   -5.0140    0.3220 H   0  0  0  0  0  0  0  0  0  0  0  0
   53.5892   -4.9672   -0.0538 H   0  0  0  0  0  0  0  0  0  0  0  0
   64.2641    0.1932    1.1803 Co  0  0  0  0  0  0  0  0  0  0  0  0
   61.9243   -3.0711    2.3960 C   0  0  0  0  0  0  0  0  0  0  0  0
   60.9923   -2.3915    1.6875 C   0  0  0  0  0  0  0  0  0  0  0  0
   61.6331   -1.2085    1.2023 C   0  0  0  0  0  0  0  0  0  0  0  0
   60.9499   -0.1793    0.5447 C   0  0  0  0  0  0  0  0  0  0  0  0
   61.5333    1.0835    0.3837 C   0  0  0  0  0  0  0  0  0  0  0  0
   60.7858    2.2544    0.0409 C   0  0  0  0  0  0  0  0  0  0  0  0
   61.6472    3.2958    0.1172 C   0  0  0  0  0  0  0  0  0  0  0  0
   62.9235    2.7440    0.4562 C   0  0  0  0  0  0  0  0  0  0  0  0
   62.8335    1.3890    0.6405 N   0  0  0  0  0  0  0  0  0  0  0  0
   64.0955    3.4707    0.4473 C   0  0  0  0  0  0  0  0  0  0  0  0
   65.3428    2.8862    0.5347 C   0  0  0  0  0  0  0  0  0  0  0  0
   66.5628    3.5809    0.2581 C   0  0  0  0  0  0  0  0  0  0  0  0
   67.5510    2.6575    0.3071 C   0  0  0  0  0  0  0  0  0  0  0  0
   66.9319    1.4189    0.6679 C   0  0  0  0  0  0  0  0  0  0  0  0
   65.5827    1.5616    0.7846 N   0  0  0  0  0  0  0  0  0  0  0  0
   67.6525    0.2618    0.9779 C   0  0  0  0  0  0  0  0  0  0  0  0
   67.0307   -0.8516    1.5515 C   0  0  0  0  0  0  0  0  0  0  0  0
   67.7543   -1.9390    2.1365 C   0  0  0  0  0  0  0  0  0  0  0  0
   66.8339   -2.7428    2.7189 C   0  0  0  0  0  0  0  0  0  0  0  0
   65.5546   -2.1617    2.4467 C   0  0  0  0  0  0  0  0  0  0  0  0
   65.6903   -0.9954    1.7415 N   0  0  0  0  0  0  0  0  0  0  0  0
   64.3570   -2.7720    2.7586 C   0  0  0  0  0  0  0  0  0  0  0  0
   63.1391   -2.3216    2.2932 C   0  0  0  0  0  0  0  0  0  0  0  0
   62.9418   -1.1731    1.5727 N   0  0  0  0  0  0  0  0  0  0  0  0
   61.8225   -3.9994    2.9238 H   0  0  0  0  0  0  0  0  0  0  0  0
   59.9589   -2.6293    1.5309 H   0  0  0  0  0  0  0  0  0  0  0  0
   59.7369    2.2624   -0.1820 H   0  0  0  0  0  0  0  0  0  0  0  0
   61.4598    4.3374   -0.0574 H   0  0  0  0  0  0  0  0  0  0  0  0
   64.0388    4.5335    0.2671 H   0  0  0  0  0  0  0  0  0  0  0  0
   66.6312    4.6274    0.0327 H   0  0  0  0  0  0  0  0  0  0  0  0
   68.6005    2.7831    0.1276 H   0  0  0  0  0  0  0  0  0  0  0  0
   68.8222   -2.0374    2.1196 H   0  0  0  0  0  0  0  0  0  0  0  0
   66.9863   -3.6529    3.2658 H   0  0  0  0  0  0  0  0  0  0  0  0
   64.3829   -3.6957    3.3169 H   0  0  0  0  0  0  0  0  0  0  0  0
   75.0534    0.3170    0.2147 Co  0  0  0  0  0  0  0  0  0  0  0  0
   72.6043   -3.1211    0.0794 C   0  0  0  0  0  0  0  0  0  0  0  0
   71.6425   -2.1830    0.2335 C   0  0  0  0  0  0  0  0  0  0  0  0
   72.3184   -0.9263    0.3460 C   0  0  0  0  0  0  0  0  0  0  0  0
   71.6481    0.2752    0.5809 C   0  0  0  0  0  0  0  0  0  0  0  0
   72.3278    1.4894    0.6944 C   0  0  0  0  0  0  0  0  0  0  0  0
   71.6675    2.7238    0.9917 C   0  0  0  0  0  0  0  0  0  0  0  0
   72.6194    3.6837    0.9636 C   0  0  0  0  0  0  0  0  0  0  0  0
   73.8510    3.0242    0.6534 C   0  0  0  0  0  0  0  0  0  0  0  0
   73.6653    1.6737    0.5141 N   0  0  0  0  0  0  0  0  0  0  0  0
   75.0387    3.6969    0.4685 C   0  0  0  0  0  0  0  0  0  0  0  0
   76.2305    3.0704    0.1773 C   0  0  0  0  0  0  0  0  0  0  0  0
   77.4532    3.7807   -0.0434 C   0  0  0  0  0  0  0  0  0  0  0  0
   78.4103    2.8450   -0.2347 C   0  0  0  0  0  0  0  0  0  0  0  0
   77.7630    1.5739   -0.1207 C   0  0  0  0  0  0  0  0  0  0  0  0
   76.4271    1.7164    0.1055 N   0  0  0  0  0  0  0  0  0  0  0  0
   78.4542    0.3633   -0.1917 C   0  0  0  0  0  0  0  0  0  0  0  0
   77.7994   -0.8663   -0.1022 C   0  0  0  0  0  0  0  0  0  0  0  0
   78.4900   -2.1191   -0.1494 C   0  0  0  0  0  0  0  0  0  0  0  0
   77.5407   -3.0808   -0.0969 C   0  0  0  0  0  0  0  0  0  0  0  0
   76.2818   -2.4049   -0.0125 C   0  0  0  0  0  0  0  0  0  0  0  0
   76.4528   -1.0456    0.0023 N   0  0  0  0  0  0  0  0  0  0  0  0
   75.0727   -3.0653    0.0022 C   0  0  0  0  0  0  0  0  0  0  0  0
   73.8556   -2.4260    0.0912 C   0  0  0  0  0  0  0  0  0  0  0  0
   73.6681   -1.0769    0.2389 N   0  0  0  0  0  0  0  0  0  0  0  0
   72.4989   -4.1826   -0.0330 H   0  0  0  0  0  0  0  0  0  0  0  0
   70.5774   -2.3042    0.2677 H   0  0  0  0  0  0  0  0  0  0  0  0
   70.6207    2.8158    1.2039 H   0  0  0  0  0  0  0  0  0  0  0  0
   72.5188    4.7383    1.1317 H   0  0  0  0  0  0  0  0  0  0  0  0
   75.0344    4.7731    0.5520 H   0  0  0  0  0  0  0  0  0  0  0  0
   77.5443    4.8495   -0.0477 H   0  0  0  0  0  0  0  0  0  0  0  0
   79.4533    2.9775   -0.4439 H   0  0  0  0  0  0  0  0  0  0  0  0
   79.5558   -2.2228   -0.2078 H   0  0  0  0  0  0  0  0  0  0  0  0
   77.6594   -4.1467   -0.1136 H   0  0  0  0  0  0  0  0  0  0  0  0
   75.0793   -4.1429   -0.0632 H   0  0  0  0  0  0  0  0  0  0  0  0
   85.8354    0.2885   -0.9521 Co  0  0  0  0  0  0  0  0  0  0  0  0
   83.1741   -2.5104   -2.6156 C   0  0  0  0  0  0  0  0  0  0  0  0
   82.2776   -1.7106   -1.9935 C   0  0  0  0  0  0  0  0  0  0  0  0
   83.0330   -0.6814   -1.3465 C   0  0  0  0  0  0  0  0  0  0  0  0
   82.4410    0.3893   -0.6709 C   0  0  0  0  0  0  0  0  0  0  0  0
   83.1885    1.4937   -0.2556 C   0  0  0  0  0  0  0  0  0  0  0  0
   82.5958    2.6903    0.2586 C   0  0  0  0  0  0  0  0  0  0  0  0
   83.5987    3.5883    0.3927 C   0  0  0  0  0  0  0  0  0  0  0  0
   84.8009    2.9154    0.0055 C   0  0  0  0  0  0  0  0  0  0  0  0
   84.5376    1.6301   -0.3866 N   0  0  0  0  0  0  0  0  0  0  0  0
   86.0535    3.4847    0.1000 C   0  0  0  0  0  0  0  0  0  0  0  0
   87.2213    2.7706   -0.0630 C   0  0  0  0  0  0  0  0  0  0  0  0
   88.5170    3.3054    0.2265 C   0  0  0  0  0  0  0  0  0  0  0  0
   89.3914    2.2797    0.1101 C   0  0  0  0  0  0  0  0  0  0  0  0
   88.6254    1.1371   -0.2857 C   0  0  0  0  0  0  0  0  0  0  0  0
   87.3035    1.4437   -0.3950 N   0  0  0  0  0  0  0  0  0  0  0  0
   89.2025   -0.0980   -0.5960 C   0  0  0  0  0  0  0  0  0  0  0  0
   88.4643   -1.1159   -1.2037 C   0  0  0  0  0  0  0  0  0  0  0  0
   89.0582   -2.3097   -1.7217 C   0  0  0  0  0  0  0  0  0  0  0  0
   88.0767   -2.9774   -2.3704 C   0  0  0  0  0  0  0  0  0  0  0  0
   86.8826   -2.2065   -2.2033 C   0  0  0  0  0  0  0  0  0  0  0  0
   87.1321   -1.0679   -1.4845 N   0  0  0  0  0  0  0  0  0  0  0  0
   85.6451   -2.6171   -2.6525 C   0  0  0  0  0  0  0  0  0  0  0  0
   84.4694   -1.9824   -2.3126 C   0  0  0  0  0  0  0  0  0  0  0  0
   84.3688   -0.8487   -1.5498 N   0  0  0  0  0  0  0  0  0  0  0  0
   82.9964   -3.3854   -3.2100 H   0  0  0  0  0  0  0  0  0  0  0  0
   81.2072   -1.7759   -1.9839 H   0  0  0  0  0  0  0  0  0  0  0  0
   81.5520    2.8069    0.4738 H   0  0  0  0  0  0  0  0  0  0  0  0
   83.5523    4.6028    0.7380 H   0  0  0  0  0  0  0  0  0  0  0  0
   86.1241    4.5215    0.3922 H   0  0  0  0  0  0  0  0  0  0  0  0
   88.7084    4.3252    0.4985 H   0  0  0  0  0  0  0  0  0  0  0  0
   90.4551    2.2809    0.2468 H   0  0  0  0  0  0  0  0  0  0  0  0
   90.0903   -2.5733   -1.6032 H   0  0  0  0  0  0  0  0  0  0  0  0
   88.1315   -3.9096   -2.8983 H   0  0  0  0  0  0  0  0  0  0  0  0
   85.5873   -3.5232   -3.2365 H   0  0  0  0  0  0  0  0  0  0  0  0
  2  3  2  0  0  0  0
  3  4  1  0  0  0  0
  4  5  4  0  0  0  0
  5  6  4  0  0  0  0
  6  7  1  0  0  0  0
  7  8  2  0  0  0  0
  8  9  1  0  0  0  0
  1 10  1  0  0  0  0
  6 10  4  0  0  0  0
  9 10  4  0  0  0  0
  9 11  4  0  0  0  0
 11 12  4  0  0  0  0
 12 13  1  0  0  0  0
 13 14  2  0  0  0  0
 14 15  1  0  0  0  0
  1 16  1  0  0  0  0
 12 16  4  0  0  0  0
 15 16  4  0  0  0  0
 15 17  4  0  0  0  0
 17 18  4  0  0  0  0
 18 19  1  0  0  0  0
 19 20  2  0  0  0  0
 20 21  1  0  0  0  0
  1 22  1  0  0  0  0
 18 22  4  0  0  0  0
 21 22  4  0  0  0  0
 21 23  4  0  0  0  0
  2 24  1  0  0  0  0
 23 24  4  0  0  0  0
  1 25  1  0  0  0  0
  4 25  4  0  0  0  0
 24 25  4  0  0  0  0
  2 26  1  0  0  0  0
  3 27  1  0  0  0  0
  7 28  1  0  0  0  0
  8 29  1  0  0  0  0
 11 30  1  0  0  0  0
 13 31  1  0  0  0  0
 14 32  1  0  0  0  0
 17 33  1  0  0  0  0
 19 34  1  0  0  0  0
 20 35  1  0  0  0  0
 23 36  1  0  0  0  0
 38 39  2  0  0  0  0
 39 40  1  0  0  0  0
 40 41  4  0  0  0  0
 41 42  4  0  0  0  0
 42 43  1  0  0  0  0
 43 44  2  0  0  0  0
 44 45  1  0  0  0  0
 37 46  1  0  0  0  0
 42 46  4  0  0  0  0
 45 46  4  0  0  0  0
 45 47  4  0  0  0  0
 47 48  4  0  0  0  0
 48 49  1  0  0  0  0
 49 50  2  0  0  0  0
 50 51  1  0  0  0  0
 37 52  1  0  0  0  0
 48 52  4  0  0  0  0
 51 52  4  0  0  0  0
 51 53  4  0  0  0  0
 53 54  4  0  0  0  0
 54 55  1  0  0  0  0
 55 56  2  0  0  0  0
 56 57  1  0  0  0  0
 37 58  1  0  0  0  0
 54 58  4  0  0  0  0
 57 58  4  0  0  0  0
 57 59  4  0  0  0  0
 38 60  1  0  0  0  0
 59 60  4  0  0  0  0
 37 61  1  0  0  0  0
 40 61  4  0  0  0  0
 60 61  4  0  0  0  0
 38 62  1  0  0  0  0
 39 63  1  0  0  0  0
 43 64  1  0  0  0  0
 44 65  1  0  0  0  0
 47 66  1  0  0  0  0
 49 67  1  0  0  0  0
 50 68  1  0  0  0  0
 53 69  1  0  0  0  0
 55 70  1  0  0  0  0
 56 71  1  0  0  0  0
 59 72  1  0  0  0  0
  5 73  1  0  0  0  0
 73 74  3  0  0  0  0
 75 76  3  0  0  0  0
 77 78  3  0  0  0  0
 79 80  3  0  0  0  0
 41 82  1  0  0  0  0
 81 82  3  0  0  0  0
 84 85  2  0  0  0  0
 85 86  1  0  0  0  0
 74 87  1  0  0  0  0
 86 87  4  0  0  0  0
 87 88  4  0  0  0  0
 88 89  1  0  0  0  0
 89 90  2  0  0  0  0
 90 91  1  0  0  0  0
 83 92  1  0  0  0  0
 88 92  4  0  0  0  0
 91 92  4  0  0  0  0
 91 93  4  0  0  0  0
 93 94  4  0  0  0  0
 94 95  1  0  0  0  0
 95 96  2  0  0  0  0
 96 97  1  0  0  0  0
 83 98  1  0  0  0  0
 94 98  4  0  0  0  0
 97 98  4  0  0  0  0
 75 99  1  0  0  0  0
 97 99  4  0  0  0  0
 99100  4  0  0  0  0
100101  1  0  0  0  0
101102  2  0  0  0  0
102103  1  0  0  0  0
 83104  1  0  0  0  0
100104  4  0  0  0  0
103104  4  0  0  0  0
103105  4  0  0  0  0
 84106  1  0  0  0  0
105106  4  0  0  0  0
 83107  1  0  0  0  0
 86107  4  0  0  0  0
106107  4  0  0  0  0
 84108  1  0  0  0  0
 85109  1  0  0  0  0
 89110  1  0  0  0  0
 90111  1  0  0  0  0
 93112  1  0  0  0  0
 95113  1  0  0  0  0
 96114  1  0  0  0  0
101115  1  0  0  0  0
102116  1  0  0  0  0
105117  1  0  0  0  0
119120  2  0  0  0  0
120121  1  0  0  0  0
 76122  1  0  0  0  0
121122  4  0  0  0  0
122123  4  0  0  0  0
123124  1  0  0  0  0
124125  2  0  0  0  0
125126  1  0  0  0  0
118127  1  0  0  0  0
123127  4  0  0  0  0
126127  4  0  0  0  0
126128  4  0  0  0  0
128129  4  0  0  0  0
129130  1  0  0  0  0
130131  2  0  0  0  0
131132  1  0  0  0  0
118133  1  0  0  0  0
129133  4  0  0  0  0
132133  4  0  0  0  0
 77134  1  0  0  0  0
132134  4  0  0  0  0
134135  4  0  0  0  0
135136  1  0  0  0  0
136137  2  0  0  0  0
137138  1  0  0  0  0
118139  1  0  0  0  0
135139  4  0  0  0  0
138139  4  0  0  0  0
138140  4  0  0  0  0
119141  1  0  0  0  0
140141  4  0  0  0  0
118142  1  0  0  0  0
121142  4  0  0  0  0
141142  4  0  0  0  0
119143  1  0  0  0  0
120144  1  0  0  0  0
124145  1  0  0  0  0
125146  1  0  0  0  0
128147  1  0  0  0  0
130148  1  0  0  0  0
131149  1  0  0  0  0
136150  1  0  0  0  0
137151  1  0  0  0  0
140152  1  0  0  0  0
154155  2  0  0  0  0
155156  1  0  0  0  0
 78157  1  0  0  0  0
156157  4  0  0  0  0
157158  4  0  0  0  0
158159  1  0  0  0  0
159160  2  0  0  0  0
160161  1  0  0  0  0
153162  1  0  0  0  0
158162  4  0  0  0  0
161162  4  0  0  0  0
161163  4  0  0  0  0
163164  4  0  0  0  0
164165  1  0  0  0  0
165166  2  0  0  0  0
166167  1  0  0  0  0
153168  1  0  0  0  0
164168  4  0  0  0  0
167168  4  0  0  0  0
 79169  1  0  0  0  0
167169  4  0  0  0  0
169170  4  0  0  0  0
170171  1  0  0  0  0
171172  2  0  0  0  0
172173  1  0  0  0  0
153174  1  0  0  0  0
170174  4  0  0  0  0
173174  4  0  0  0  0
173175  4  0  0  0  0
154176  1  0  0  0  0
175176  4  0  0  0  0
153177  1  0  0  0  0
156177  4  0  0  0  0
176177  4  0  0  0  0
154178  1  0  0  0  0
155179  1  0  0  0  0
159180  1  0  0  0  0
160181  1  0  0  0  0
163182  1  0  0  0  0
165183  1  0  0  0  0
166184  1  0  0  0  0
171185  1  0  0  0  0
172186  1  0  0  0  0
175187  1  0  0  0  0
189190  2  0  0  0  0
190191  1  0  0  0  0
 80192  1  0  0  0  0
191192  4  0  0  0  0
192193  4  0  0  0  0
193194  1  0  0  0  0
194195  2  0  0  0  0
195196  1  0  0  0  0
188197  1  0  0  0  0
193197  4  0  0  0  0
196197  4  0  0  0  0
196198  4  0  0  0  0
198199  4  0  0  0  0
199200  1  0  0  0  0
200201  2  0  0  0  0
201202  1  0  0  0  0
188203  1  0  0  0  0
199203  4  0  0  0  0
202203  4  0  0  0  0
 81204  1  0  0  0  0
202204  4  0  0  0  0
204205  4  0  0  0  0
205206  1  0  0  0  0
206207  2  0  0  0  0
207208  1  0  0  0  0
188209  1  0  0  0  0
205209  4  0  0  0  0
208209  4  0  0  0  0
208210  4  0  0  0  0
189211  1  0  0  0  0
210211  4  0  0  0  0
188212  1  0  0  0  0
191212  4  0  0  0  0
211212  4  0  0  0  0
189213  1  0  0  0  0
190214  1  0  0  0  0
194215  1  0  0  0  0
195216  1  0  0  0  0
198217  1  0  0  0  0
200218  1  0  0  0  0
201219  1  0  0  0  0
206220  1  0  0  0  0
207221  1  0  0  0  0
210222  1  0  0  0  0
M  END
