185

Co 34.814084 0.307994 0.339540
C 37.470066 -2.300669 2.279808
C 38.355779 -1.623401 1.512624
C 37.598922 -0.657645 0.775884
C 38.187560 0.327564 -0.024635
C 37.454854 1.433125 -0.467468
C 38.058176 2.606598 -1.018960
C 37.059527 3.499027 -1.212475
C 35.847675 2.842999 -0.824666
N 36.107049 1.584442 -0.350169
C 34.592503 3.375958 -1.033715
C 33.432922 2.644611 -0.875478
C 32.144201 3.094673 -1.314225
C 31.290044 2.065404 -1.119485
C 32.051909 1.010633 -0.516327
N 33.362828 1.371563 -0.384493
C 31.492037 -0.153964 -0.031207
C 32.195389 -1.045821 0.753000
C 31.583542 -2.126184 1.470730
C 32.551098 -2.675570 2.238181
C 33.759136 -1.960348 1.946479
N 33.527248 -0.960982 1.044277
C 34.997891 -2.321282 2.436255
C 36.175253 -1.775990 1.967662
N 36.271016 -0.755990 1.058150
H 37.654317 -3.093900 2.977957
H 39.422445 -1.724398 1.465319
H 39.109200 2.723164 -1.193508
H 37.115742 4.497593 -1.600115
H 34.519411 4.379657 -1.424093
H 31.948619 4.063309 -1.732000
H 30.240026 2.011183 -1.332846
H 30.439584 -0.328267 -0.195016
H 30.547021 -2.393497 1.398798
H 32.482365 -3.498101 2.923572
H 35.054206 -3.127937 3.151295
Co 76.905872 -0.118027 0.326423
C 74.179728 2.490005 2.174830
C 73.312812 1.770060 1.425525
C 74.094680 0.800671 0.720168
C 73.531447 -0.215524 -0.058806
C 74.292657 -1.304290 -0.492900
C 73.719784 -2.488829 -1.053381
C 74.737747 -3.361079 -1.235146
C 75.931179 -2.682035 -0.830089
N 75.642703 -1.427462 -0.362339
C 77.197182 -3.199262 -1.010649
C 78.343854 -2.453267 -0.831823
C 79.647805 -2.895402 -1.232110
C 80.485911 -1.854752 -1.029506
C 79.697506 -0.799898 -0.461465
N 78.387809 -1.173399 -0.355587
C 80.231988 0.381402 0.010973
C 79.499446 1.283884 0.754906
C 80.082245 2.393655 1.451710
C 79.091727 2.953146 2.181343
C 77.899928 2.211820 1.888122
N 78.162988 1.188966 1.021149
C 76.648541 2.565913 2.348909
C 75.487094 1.984226 1.884691
N 75.419160 0.936856 1.004349
H 73.975002 3.299774 2.847826
H 72.244580 1.847259 1.368976
H 72.674604 -2.622213 -1.248552
H 74.707100 -4.359814 -1.625198
H 77.290819 -4.204923 -1.391465
H 79.863649 -3.867471 -1.631532
H 81.540385 -1.791479 -1.216796
H 81.285714 0.565403 -0.132694
H 81.116549 2.672372 1.392339
H 79.134863 3.797216 2.842199
H 76.568358 3.392007 3.039054
C 39.553651 0.236062 -0.311993
C 40.727140 0.102579 -0.592334
C 50.064066 -0.420712 0.082337
C 51.198479 -0.349686 0.510118
C 60.484850 0.377873 0.506753
C 61.618812 0.418819 0.073821
C 70.976869 -0.080045 -0.590990
C 72.159465 -0.170080 -0.333613
Co 45.444126 -0.413023 -1.114303
C 42.751327 -3.564073 -0.535752
C 41.885021 -2.525342 -0.469327
C 42.657375 -1.338920 -0.677949
C 42.088607 -0.071909 -0.858734
C 42.834517 0.978130 -1.406439
C 42.250336 2.170464 -1.937130
C 43.257595 2.873311 -2.506935
C 44.457060 2.130157 -2.268577
N 44.179205 0.960706 -1.611997
C 45.723358 2.611858 -2.533839
C 46.868746 2.010103 -2.053551
C 48.159468 2.628039 -2.065475
C 48.981679 1.818330 -1.356865
C 48.198429 0.685859 -0.967072
N 46.911904 0.813000 -1.389130
C 48.744565 -0.459858 -0.374008
C 48.028309 -1.662495 -0.341980
C 48.629525 -2.934189 -0.084621
C 47.664645 -3.863670 -0.280963
C 46.468486 -3.146379 -0.601649
N 46.712791 -1.799459 -0.657475
C 45.221546 -3.731342 -0.688296
C 44.051775 -2.999120 -0.728968
N 43.976740 -1.635314 -0.828629
H 42.549327 -4.613371 -0.442306
H 40.820993 -2.543540 -0.336511
H 41.204426 2.401597 -1.901057
H 43.214246 3.815331 -3.018079
H 45.816353 3.556248 -3.048466
H 48.383268 3.565318 -2.536613
H 50.026332 1.937550 -1.145481
H 49.660427 -3.077146 0.171891
H 47.732769 -4.930777 -0.196004
H 45.151802 -4.806179 -0.615554
Co 55.839429 0.055609 1.494792
C 53.644715 -3.476072 1.933981
C 52.662598 -2.667244 1.469588
C 53.254070 -1.380613 1.271725
C 52.524445 -0.234129 0.932614
C 53.071209 1.043085 1.116413
C 52.285756 2.238170 1.162845
C 53.119686 3.230824 1.555417
C 54.418529 2.644761 1.686909
N 54.368860 1.300229 1.430747
C 55.574487 3.368946 1.901261
C 56.834862 2.831015 1.732216
C 58.031681 3.611596 1.651945
C 59.017096 2.766821 1.264923
C 58.426481 1.468109 1.170849
N 57.098363 1.515014 1.458225
C 59.157956 0.297278 0.934195
C 58.610153 -0.959605 1.224497
C 59.394939 -2.145837 1.379953
C 58.557485 -3.101660 1.849018
C 57.257634 -2.507160 1.918687
N 57.309967 -1.189379 1.549299
C 56.099787 -3.211462 2.183286
C 54.840896 -2.690835 1.958244
N 54.579903 -1.402773 1.572047
H 53.587109 -4.510811 2.210657
H 51.626589 -2.890518 1.308547
H 51.232830 2.282939 0.963684
H 52.897621 4.267208 1.720197
H 55.489421 4.426872 2.098615
H 58.087128 4.665938 1.841242
H 60.054757 2.975847 1.095313
H 60.449660 -2.206706 1.195058
H 58.777646 -4.120106 2.103707
H 56.183326 -4.248818 2.470198
Co 66.243799 0.332325 -1.110334
C 63.555478 -2.816691 -1.745096
C 62.724091 -1.944621 -1.127280
C 63.496545 -0.770870 -0.855911
C 62.938895 0.423839 -0.382711
C 63.645199 1.629568 -0.468666
C 63.032472 2.915182 -0.339145
C 63.991372 3.829116 -0.619300
C 65.194797 3.093871 -0.863312
N 64.961295 1.745767 -0.790479
C 66.437055 3.678644 -1.000740
C 67.613269 2.956327 -0.971494
C 68.908273 3.549630 -0.834443
C 69.785603 2.530144 -0.678434
C 69.024769 1.321832 -0.775444
N 67.701347 1.589991 -0.945494
C 69.607189 0.050581 -0.844887
C 68.868067 -1.057177 -1.274071
C 69.460621 -2.294909 -1.676049
C 68.458075 -3.062996 -2.163324
C 67.253092 -2.308301 -2.001112
N 67.522021 -1.073842 -1.472470
C 65.991201 -2.826916 -2.211442
C 64.840558 -2.188943 -1.795558
N 64.785405 -0.929497 -1.259825
H 63.341885 -3.800381 -2.115567
H 61.679680 -2.049870 -0.907655
H 61.998622 3.073422 -0.104144
H 63.915185 4.898904 -0.638481
H 66.497306 4.756105 -1.029562
H 69.099449 4.605088 -0.837070
H 70.849604 2.570629 -0.549900
H 70.507325 -2.515256 -1.612097
H 68.507842 -4.054016 -2.570680
H 65.906829 -3.820799 -2.624282
