114

C 8.133579 -0.003805 -3.299510
C 7.262384 -0.133598 -2.280117
C 8.049106 -0.022681 -1.064885
C 7.491164 -0.106746 0.226141
C 8.229285 0.024431 1.412871
C 7.747556 -0.074203 2.745393
C 8.808384 0.121881 3.581704
C 9.962549 0.341337 2.777911
N 9.562249 0.269576 1.478445
C 11.249902 0.583737 3.234369
C 12.392917 0.788285 2.474107
C 13.697739 1.038188 3.070022
C 14.558394 1.180004 2.045138
C 13.773182 1.014541 0.831829
N 12.476729 0.782739 1.127756
C 14.315600 1.087640 -0.445045
C 13.606419 0.934865 -1.626462
C 14.097160 1.001288 -2.961800
C 13.041150 0.797602 -3.799912
C 11.878259 0.601438 -2.998998
N 12.270664 0.691166 -1.701096
C 10.588086 0.374335 -3.454092
C 9.440759 0.192395 -2.696202
N 9.348184 0.176991 -1.344994
H 7.945345 -0.026942 -4.355743
H 6.199564 -0.273509 -2.310154
H 6.730074 -0.280352 3.013990
H 8.803323 0.114676 4.654324
H 10.154400 0.378003 0.662959
H 11.374455 0.614894 4.308085
H 13.886623 1.090743 4.125247
H 15.613577 1.374700 2.067823
H 15.375863 1.279353 -0.524281
H 15.120017 1.182106 -3.229671
H 13.051784 0.783031 -4.872613
H 11.677300 0.596768 -0.885402
H 10.461118 0.343686 -4.527632
C -8.707300 -0.242108 3.480977
C -7.681997 -0.373888 2.616982
C -8.252164 -0.212602 1.291595
C -7.488430 -0.286483 0.110761
C -8.021166 -0.181020 -1.183878
C -7.313368 -0.237850 -2.414460
C -8.223638 -0.082842 -3.419720
C -9.506564 0.079768 -2.824991
N -9.332170 0.010473 -1.476237
C -10.705583 0.284228 -3.491772
C -11.959851 0.479557 -2.930479
C -13.154198 0.701491 -3.733056
C -14.167822 0.861435 -2.862322
C -13.585085 0.734692 -1.535367
N -12.257433 0.504868 -1.614932
C -14.324556 0.840932 -0.364176
C -13.816696 0.724189 0.920545
C -14.523026 0.811591 2.154288
C -13.621506 0.626400 3.160292
C -12.341084 0.422753 2.567920
N -12.511107 0.491947 1.221303
C -11.145970 0.193041 3.232898
C -9.891556 -0.002135 2.673968
N -9.576887 0.002702 1.356601
H -8.699073 -0.297758 4.552638
H -6.647737 -0.576403 2.816520
H -6.252793 -0.368523 -2.504514
H -8.034147 -0.074771 -4.475460
H -10.060168 0.098813 -0.776766
H -10.652276 0.302837 -4.571594
H -13.172614 0.725571 -4.805915
H -15.206764 1.046367 -3.057851
H -15.384268 1.027329 -0.462078
H -15.576830 0.990647 2.244510
H -13.811318 0.628300 4.216206
H -11.786515 0.388066 0.521202
H -11.199126 0.163437 4.312576
C 6.110476 -0.317255 0.331689
C 4.909237 -0.480013 0.393596
C -4.900164 -0.580809 0.330733
C -6.103132 -0.458455 0.227069
C 2.489239 0.848261 3.542734
C 3.474763 0.505073 2.690498
C 2.821438 -0.113938 1.552419
C 3.517649 -0.623469 0.439369
C 2.889780 -1.258262 -0.645262
C 3.504586 -1.882892 -1.761744
C 2.508177 -2.380816 -2.551969
C 1.264327 -2.066228 -1.936901
N 1.547534 -1.395050 -0.786919
C 0.004875 -2.372972 -2.433587
C -1.231615 -2.057064 -1.893740
C -2.479776 -2.408274 -2.549745
C -3.466370 -1.923026 -1.770725
C -2.809333 -1.290639 -0.641920
N -1.472996 -1.389483 -0.739956
C -3.506686 -0.679300 0.418332
C -2.879718 -0.149915 1.557751
C -3.491662 0.453908 2.687310
C -2.494821 0.818950 3.546255
C -1.252632 0.458676 2.952702
N -1.537986 -0.128416 1.758181
C 0.007507 0.703408 3.480769
C 1.243805 0.452875 2.906688
N 1.486624 -0.129656 1.708312
H 2.560700 1.328851 4.499566
H 4.533681 0.646086 2.784966
H 4.563113 -1.953024 -1.918657
H 2.615048 -2.915898 -3.475478
H 0.882155 -1.037406 -0.110198
H -0.010182 -2.913205 -3.370593
H -2.553073 -2.946750 -3.475104
H -4.529138 -1.987821 -1.901506
H -4.547645 0.593014 2.810896
H -2.599693 1.301254 4.498616
H -0.873568 -0.495437 1.085549
H 0.023450 1.181520 4.450955
