74

Zn 9.201783 -0.063482 0.071023
C 11.747122 -3.369023 0.965882
C 12.696563 -2.438469 0.705301
C 12.003716 -1.230764 0.356335
C 12.637386 -0.027494 0.010946
C 11.967193 1.159383 -0.321508
C 12.621908 2.377478 -0.706205
C 11.644246 3.283713 -0.947644
C 10.394792 2.616704 -0.713273
N 10.622614 1.327152 -0.337829
C 9.151528 3.211388 -0.851614
C 7.927566 2.597978 -0.643733
C 6.652070 3.245323 -0.791488
C 5.709147 2.317893 -0.504796
C 6.407643 1.102436 -0.183373
N 7.748346 1.302529 -0.274727
C 5.793761 -0.090394 0.162036
C 6.443837 -1.274962 0.467957
C 5.782598 -2.502910 0.818889
C 6.753730 -3.418722 1.042150
C 8.009082 -2.750847 0.829089
N 7.790316 -1.455252 0.482215
C 9.251866 -3.345491 0.968509
C 10.476705 -2.725922 0.783512
N 10.664348 -1.427839 0.415179
H 11.879509 -4.392776 1.258568
H 13.763408 -2.539629 0.752607
H 13.684290 2.500922 -0.789349
H 11.744615 4.305934 -1.257905
H 9.136482 4.250412 -1.150239
H 6.515845 4.271040 -1.076107
H 4.641551 2.427317 -0.506626
H 4.713226 -0.098225 0.193348
H 4.718598 -2.628195 0.881132
H 6.649071 -4.448693 1.324846
H 9.269102 -4.387816 1.255392
C 14.041549 -0.010925 -0.004390
C 15.254022 0.004168 -0.014166
Zn 20.094079 0.062294 -0.070280
C 17.571616 3.347753 0.954294
C 16.615935 2.420790 0.703550
C 17.299971 1.219795 0.315974
C 16.658230 0.020473 -0.028103
C 17.320345 -1.163885 -0.385025
C 16.656486 -2.382037 -0.753636
C 17.627872 -3.286797 -1.024039
C 18.882642 -2.618043 -0.825787
N 18.664037 -1.329800 -0.440398
C 20.122064 -3.208167 -1.009608
C 21.350554 -2.589555 -0.849097
C 22.621809 -3.229192 -1.054808
C 23.571277 -2.297068 -0.807548
C 22.880931 -1.086963 -0.450593
N 21.538620 -1.294433 -0.483313
C 23.502716 0.107596 -0.125786
C 22.860263 1.284896 0.221328
C 23.529657 2.512763 0.557126
C 22.564488 3.418577 0.838816
C 21.304611 2.745339 0.674886
N 21.514848 1.456108 0.300104
C 20.065859 3.330952 0.875279
C 18.837026 2.710042 0.724025
N 18.640297 1.417650 0.340556
H 17.446517 4.366179 1.268162
H 15.550613 2.520011 0.781197
H 15.592441 -2.506935 -0.807101
H 17.519883 -4.308820 -1.332487
H 20.129885 -4.246383 -1.311193
H 22.750864 -4.253157 -1.348987
H 24.638300 -2.400268 -0.857506
H 24.583445 0.122316 -0.144336
H 24.594621 2.644689 0.570457
H 22.676190 4.445334 1.130375
H 20.055700 4.368333 1.179773
