76

C 3.543588 -3.204497 1.773904
C 2.433890 -2.499404 1.614365
C 2.767988 -1.182645 1.143541
C 2.049673 -0.008951 0.802813
C 2.581632 1.291083 0.657958
C 1.991720 2.425049 1.275742
C 2.745935 3.504195 0.975518
C 3.822377 3.066162 0.164177
N 3.657751 1.748819 0.016827
C 4.785498 3.966473 -0.277288
C 6.169513 3.756244 -0.337546
C 7.336426 4.602012 -0.553447
C 8.416226 3.876586 -0.509081
C 8.010167 2.519761 -0.260566
N 6.676620 2.539994 -0.173507
C 8.730228 1.329659 -0.106697
C 8.186356 0.030684 0.106669
C 8.652575 -1.107851 -0.566301
C 7.913198 -2.180722 -0.167339
C 6.990547 -1.680085 0.757335
N 7.183221 -0.358828 0.898893
C 6.034630 -2.521783 1.370572
C 4.636273 -2.340749 1.402769
N 4.103267 -1.176927 1.045901
H 3.634949 -4.229857 2.113475
H 1.402230 -2.837707 1.806361
H 1.065610 2.413248 1.891232
H 2.531949 4.536851 1.314257
H 4.356504 1.093147 -0.618472
H 4.508192 4.981527 -0.610610
H 7.309229 5.692616 -0.726573
H 9.465985 4.179922 -0.628536
H 9.826029 1.355695 -0.175777
H 9.491214 -1.122665 -1.303099
H 8.018702 -3.215874 -0.487568
H 6.589008 0.308853 1.611289
H 6.367471 -3.471078 1.873429
C 0.654053 -0.286927 0.648104
C -0.553803 -0.487091 0.499912
C -8.220867 2.880775 -0.419876
C -9.158495 1.930975 -0.498030
C -8.507753 0.637064 -0.524989
C -8.870074 -0.706219 -0.599342
C -7.983880 -1.824600 -0.726451
C -8.156810 -2.830948 -1.700330
C -7.140820 -3.708298 -1.577412
C -6.335587 -3.261925 -0.538081
N -6.874574 -2.126068 -0.046705
C -5.179604 -3.948710 -0.191673
C -3.881862 -3.549704 0.202733
C -2.762991 -4.177392 0.775048
C -1.831606 -3.262164 0.931318
C -2.371439 -2.030724 0.448279
N -3.548799 -2.260469 0.044015
C -1.997948 -0.678525 0.305112
C -2.837050 0.404389 -0.006132
C -2.352661 1.362177 -0.936047
C -3.337530 2.261508 -1.082818
C -4.449744 1.922964 -0.279512
N -4.074553 0.776216 0.355676
C -5.570710 2.696409 -0.317328
C -6.913897 2.247925 -0.393248
N -7.226617 0.977102 -0.458910
H -8.389716 3.962111 -0.379744
H -10.243019 2.037940 -0.536787
H -9.909896 -0.976921 -0.595484
H -8.997896 -2.871713 -2.429497
H -6.981131 -4.602085 -2.176486
H -6.439595 -1.533392 0.834643
H -5.126601 -4.967882 -0.210645
H -2.799256 -5.217287 0.995464
H -0.840410 -3.372199 1.341795
H -1.373768 1.390069 -1.444279
H -3.193982 3.121738 -1.762628
H -4.693071 0.217217 1.098963
H -5.512410 3.775708 -0.307892
