
  xtb     11212119193D
 xtb: 6.4.1 (bd6e46d)
259314  0     0  0            999 V2000
   51.0331    0.0336   -0.0115 Cu  0  0  0  0  0  0  0  0  0  0  0  0
   53.5211   -1.5401    3.0617 C   0  0  0  0  0  0  0  0  0  0  0  0
   54.4841   -1.0839    2.2263 C   0  0  0  0  0  0  0  0  0  0  0  0
   53.8110   -0.5247    1.0891 C   0  0  0  0  0  0  0  0  0  0  0  0
   54.4720    0.0453   -0.0077 C   0  0  0  0  0  0  0  0  0  0  0  0
   53.8096    0.6145   -1.1039 C   0  0  0  0  0  0  0  0  0  0  0  0
   54.4811    1.1802   -2.2388 C   0  0  0  0  0  0  0  0  0  0  0  0
   53.5168    1.6344   -3.0738 C   0  0  0  0  0  0  0  0  0  0  0  0
   52.2581    1.3392   -2.4509 C   0  0  0  0  0  0  0  0  0  0  0  0
   52.4694    0.7169   -1.2596 N   0  0  0  0  0  0  0  0  0  0  0  0
   51.0290    1.6518   -3.0038 C   0  0  0  0  0  0  0  0  0  0  0  0
   49.8015    1.3569   -2.4383 C   0  0  0  0  0  0  0  0  0  0  0  0
   48.5362    1.6860   -3.0364 C   0  0  0  0  0  0  0  0  0  0  0  0
   47.5785    1.2245   -2.2001 C   0  0  0  0  0  0  0  0  0  0  0  0
   48.2576    0.6130   -1.0901 C   0  0  0  0  0  0  0  0  0  0  0  0
   49.6000    0.7117   -1.2615 N   0  0  0  0  0  0  0  0  0  0  0  0
   47.6169    0.0139   -0.0197 C   0  0  0  0  0  0  0  0  0  0  0  0
   48.2595   -0.5749    1.0551 C   0  0  0  0  0  0  0  0  0  0  0  0
   47.5822   -1.1906    2.1640 C   0  0  0  0  0  0  0  0  0  0  0  0
   48.5412   -1.6359    3.0076 C   0  0  0  0  0  0  0  0  0  0  0  0
   49.8054   -1.2939    2.4146 C   0  0  0  0  0  0  0  0  0  0  0  0
   49.6021   -0.6561    1.2340 N   0  0  0  0  0  0  0  0  0  0  0  0
   51.0334   -1.5743    2.9863 C   0  0  0  0  0  0  0  0  0  0  0  0
   52.2617   -1.2539    2.4361 C   0  0  0  0  0  0  0  0  0  0  0  0
   52.4712   -0.6337    1.2433 N   0  0  0  0  0  0  0  0  0  0  0  0
   53.6339   -2.0224    4.0133 H   0  0  0  0  0  0  0  0  0  0  0  0
   55.5486   -1.1010    2.3556 H   0  0  0  0  0  0  0  0  0  0  0  0
   55.5457    1.2037   -2.3666 H   0  0  0  0  0  0  0  0  0  0  0  0
   53.6283    2.1200   -4.0239 H   0  0  0  0  0  0  0  0  0  0  0  0
   51.0291    2.1618   -3.9563 H   0  0  0  0  0  0  0  0  0  0  0  0
   48.4203    2.2006   -3.9707 H   0  0  0  0  0  0  0  0  0  0  0  0
   46.5121    1.2804   -2.3048 H   0  0  0  0  0  0  0  0  0  0  0  0
   46.5366    0.0066   -0.0228 H   0  0  0  0  0  0  0  0  0  0  0  0
   46.5161   -1.2597    2.2631 H   0  0  0  0  0  0  0  0  0  0  0  0
   48.4268   -2.1476    3.9437 H   0  0  0  0  0  0  0  0  0  0  0  0
   51.0345   -2.0810    3.9406 H   0  0  0  0  0  0  0  0  0  0  0  0
  116.4999    0.0350   -0.0135 Cu  0  0  0  0  0  0  0  0  0  0  0  0
  114.0147    2.0018    2.8266 C   0  0  0  0  0  0  0  0  0  0  0  0
  113.0509    1.4438    2.0563 C   0  0  0  0  0  0  0  0  0  0  0  0
  113.7229    0.7408    1.0014 C   0  0  0  0  0  0  0  0  0  0  0  0
  113.0609    0.0363   -0.0136 C   0  0  0  0  0  0  0  0  0  0  0  0
  113.7226   -0.6687   -1.0285 C   0  0  0  0  0  0  0  0  0  0  0  0
  113.0502   -1.3714   -2.0833 C   0  0  0  0  0  0  0  0  0  0  0  0
  114.0136   -1.9296   -2.8538 C   0  0  0  0  0  0  0  0  0  0  0  0
  115.2727   -1.5615   -2.2720 C   0  0  0  0  0  0  0  0  0  0  0  0
  115.0626   -0.7933   -1.1688 N   0  0  0  0  0  0  0  0  0  0  0  0
  116.5012   -1.9443   -2.7802 C   0  0  0  0  0  0  0  0  0  0  0  0
  117.7290   -1.5861   -2.2536 C   0  0  0  0  0  0  0  0  0  0  0  0
  118.9937   -1.9929   -2.8031 C   0  0  0  0  0  0  0  0  0  0  0  0
  119.9522   -1.4378   -2.0268 C   0  0  0  0  0  0  0  0  0  0  0  0
  119.2742   -0.6907   -1.0024 C   0  0  0  0  0  0  0  0  0  0  0  0
  117.9316   -0.8018   -1.1646 N   0  0  0  0  0  0  0  0  0  0  0  0
  119.9161    0.0322   -0.0122 C   0  0  0  0  0  0  0  0  0  0  0  0
  119.2746    0.7569    0.9768 C   0  0  0  0  0  0  0  0  0  0  0  0
  119.9530    1.5048    2.0003 C   0  0  0  0  0  0  0  0  0  0  0  0
  118.9949    2.0629    2.7749 C   0  0  0  0  0  0  0  0  0  0  0  0
  117.7299    1.6566    2.2256 C   0  0  0  0  0  0  0  0  0  0  0  0
  117.9320    0.8702    1.1380 N   0  0  0  0  0  0  0  0  0  0  0  0
  116.5024    2.0162    2.7520 C   0  0  0  0  0  0  0  0  0  0  0  0
  115.2736    1.6332    2.2446 C   0  0  0  0  0  0  0  0  0  0  0  0
  115.0630    0.8648    1.1416 N   0  0  0  0  0  0  0  0  0  0  0  0
  113.9028    2.6033    3.7078 H   0  0  0  0  0  0  0  0  0  0  0  0
  111.9864    1.4804    2.1815 H   0  0  0  0  0  0  0  0  0  0  0  0
  111.9857   -1.4074   -2.2084 H   0  0  0  0  0  0  0  0  0  0  0  0
  113.9013   -2.5311   -3.7350 H   0  0  0  0  0  0  0  0  0  0  0  0
  116.5002   -2.5692   -3.6617 H   0  0  0  0  0  0  0  0  0  0  0  0
  119.1085   -2.6187   -3.6671 H   0  0  0  0  0  0  0  0  0  0  0  0
  121.0185   -1.5121   -2.1205 H   0  0  0  0  0  0  0  0  0  0  0  0
  120.9964    0.0311   -0.0116 H   0  0  0  0  0  0  0  0  0  0  0  0
  121.0194    1.5778    2.0944 H   0  0  0  0  0  0  0  0  0  0  0  0
  119.1101    2.6904    3.6376 H   0  0  0  0  0  0  0  0  0  0  0  0
  116.5020    2.6421    3.6327 H   0  0  0  0  0  0  0  0  0  0  0  0
   55.8744    0.0446   -0.0084 C   0  0  0  0  0  0  0  0  0  0  0  0
   57.0873    0.0453   -0.0102 C   0  0  0  0  0  0  0  0  0  0  0  0
   66.7859    0.0240   -0.0219 C   0  0  0  0  0  0  0  0  0  0  0  0
   67.9996    0.0294   -0.0217 C   0  0  0  0  0  0  0  0  0  0  0  0
   77.7014    0.0526   -0.0214 C   0  0  0  0  0  0  0  0  0  0  0  0
   78.9153    0.0524   -0.0237 C   0  0  0  0  0  0  0  0  0  0  0  0
   88.6162    0.0498   -0.0289 C   0  0  0  0  0  0  0  0  0  0  0  0
   89.8302    0.0454   -0.0292 C   0  0  0  0  0  0  0  0  0  0  0  0
   99.5328    0.0366   -0.0234 C   0  0  0  0  0  0  0  0  0  0  0  0
  100.7465    0.0367   -0.0200 C   0  0  0  0  0  0  0  0  0  0  0  0
  110.4456    0.0378   -0.0171 C   0  0  0  0  0  0  0  0  0  0  0  0
  111.6586    0.0372   -0.0141 C   0  0  0  0  0  0  0  0  0  0  0  0
   61.9361    0.0334   -0.0165 Cu  0  0  0  0  0  0  0  0  0  0  0  0
   59.4465   -2.8231    1.9163 C   0  0  0  0  0  0  0  0  0  0  0  0
   58.4814   -2.0544    1.3581 C   0  0  0  0  0  0  0  0  0  0  0  0
   59.1514   -0.9851    0.6754 C   0  0  0  0  0  0  0  0  0  0  0  0
   58.4891    0.0428   -0.0106 C   0  0  0  0  0  0  0  0  0  0  0  0
   59.1545    1.0672   -0.6987 C   0  0  0  0  0  0  0  0  0  0  0  0
   58.4876    2.1392   -1.3803 C   0  0  0  0  0  0  0  0  0  0  0  0
   59.4547    2.9022   -1.9431 C   0  0  0  0  0  0  0  0  0  0  0  0
   60.7097    2.2980   -1.5985 C   0  0  0  0  0  0  0  0  0  0  0  0
   60.4942    1.1925   -0.8352 N   0  0  0  0  0  0  0  0  0  0  0  0
   61.9397    2.7761   -2.0125 C   0  0  0  0  0  0  0  0  0  0  0  0
   63.1677    2.2308   -1.6843 C   0  0  0  0  0  0  0  0  0  0  0  0
   64.4234    2.7383   -2.1573 C   0  0  0  0  0  0  0  0  0  0  0  0
   65.3884    1.9638   -1.6069 C   0  0  0  0  0  0  0  0  0  0  0  0
   64.7202    0.9910   -0.7914 C   0  0  0  0  0  0  0  0  0  0  0  0
   63.3810    1.1645   -0.8662 N   0  0  0  0  0  0  0  0  0  0  0  0
   65.3848    0.0245   -0.0219 C   0  0  0  0  0  0  0  0  0  0  0  0
   64.7184   -0.9401    0.7483 C   0  0  0  0  0  0  0  0  0  0  0  0
   65.3841   -1.9169    1.5609 C   0  0  0  0  0  0  0  0  0  0  0  0
   64.4168   -2.6869    2.1138 C   0  0  0  0  0  0  0  0  0  0  0  0
   63.1622   -2.1724    1.6451 C   0  0  0  0  0  0  0  0  0  0  0  0
   63.3785   -1.1069    0.8268 N   0  0  0  0  0  0  0  0  0  0  0  0
   61.9322   -2.7109    1.9769 C   0  0  0  0  0  0  0  0  0  0  0  0
   60.7035   -2.2252    1.5679 C   0  0  0  0  0  0  0  0  0  0  0  0
   60.4910   -1.1173    0.8071 N   0  0  0  0  0  0  0  0  0  0  0  0
   59.3364   -3.7128    2.5057 H   0  0  0  0  0  0  0  0  0  0  0  0
   57.4176   -2.1882    1.3834 H   0  0  0  0  0  0  0  0  0  0  0  0
   57.4244    2.2786   -1.4017 H   0  0  0  0  0  0  0  0  0  0  0  0
   59.3470    3.7914   -2.5336 H   0  0  0  0  0  0  0  0  0  0  0  0
   61.9416    3.6502   -2.6480 H   0  0  0  0  0  0  0  0  0  0  0  0
   64.5330    3.5721   -2.8235 H   0  0  0  0  0  0  0  0  0  0  0  0
   66.4509    2.0200   -1.7393 H   0  0  0  0  0  0  0  0  0  0  0  0
   66.4468   -1.9794    1.6894 H   0  0  0  0  0  0  0  0  0  0  0  0
   64.5241   -3.5215    2.7792 H   0  0  0  0  0  0  0  0  0  0  0  0
   61.9310   -3.5857    2.6115 H   0  0  0  0  0  0  0  0  0  0  0  0
   72.8504    0.0414   -0.0202 Cu  0  0  0  0  0  0  0  0  0  0  0  0
   70.3762   -3.2940    0.8911 C   0  0  0  0  0  0  0  0  0  0  0  0
   69.4074   -2.3967    0.5902 C   0  0  0  0  0  0  0  0  0  0  0  0
   70.0697   -1.1591    0.2953 C   0  0  0  0  0  0  0  0  0  0  0  0
   69.4007    0.0324   -0.0218 C   0  0  0  0  0  0  0  0  0  0  0  0
   70.0640    1.2274   -0.3382 C   0  0  0  0  0  0  0  0  0  0  0  0
   69.3955    2.4618   -0.6327 C   0  0  0  0  0  0  0  0  0  0  0  0
   70.3600    3.3643   -0.9324 C   0  0  0  0  0  0  0  0  0  0  0  0
   71.6156    2.6810   -0.8117 C   0  0  0  0  0  0  0  0  0  0  0  0
   71.4030    1.3900   -0.4376 N   0  0  0  0  0  0  0  0  0  0  0  0
   72.8426    3.2643   -1.0708 C   0  0  0  0  0  0  0  0  0  0  0  0
   74.0726    2.6456   -0.9387 C   0  0  0  0  0  0  0  0  0  0  0  0
   75.3249    3.2739   -1.2468 C   0  0  0  0  0  0  0  0  0  0  0  0
   76.2936    2.3717   -0.9605 C   0  0  0  0  0  0  0  0  0  0  0  0
   75.6313    1.1984   -0.4687 C   0  0  0  0  0  0  0  0  0  0  0  0
   74.2915    1.3828   -0.4810 N   0  0  0  0  0  0  0  0  0  0  0  0
   76.3006    0.0501   -0.0194 C   0  0  0  0  0  0  0  0  0  0  0  0
   75.6368   -1.1011    0.4308 C   0  0  0  0  0  0  0  0  0  0  0  0
   76.3046   -2.2706    0.9241 C   0  0  0  0  0  0  0  0  0  0  0  0
   75.3403   -3.1776    1.2101 C   0  0  0  0  0  0  0  0  0  0  0  0
   74.0851   -2.5560    0.9002 C   0  0  0  0  0  0  0  0  0  0  0  0
   74.2979   -1.2923    0.4421 N   0  0  0  0  0  0  0  0  0  0  0  0
   72.8583   -3.1812    1.0307 C   0  0  0  0  0  0  0  0  0  0  0  0
   71.6285   -2.6045    0.7704 C   0  0  0  0  0  0  0  0  0  0  0  0
   71.4095   -1.3148    0.3953 N   0  0  0  0  0  0  0  0  0  0  0  0
   70.2714   -4.3257    1.1658 H   0  0  0  0  0  0  0  0  0  0  0  0
   68.3457   -2.5425    0.5523 H   0  0  0  0  0  0  0  0  0  0  0  0
   68.3332    2.6026   -0.5951 H   0  0  0  0  0  0  0  0  0  0  0  0
   70.2501    4.3957   -1.2061 H   0  0  0  0  0  0  0  0  0  0  0  0
   72.8401    4.2918   -1.4055 H   0  0  0  0  0  0  0  0  0  0  0  0
   75.4300    4.2691   -1.6333 H   0  0  0  0  0  0  0  0  0  0  0  0
   77.3551    2.4672   -1.0772 H   0  0  0  0  0  0  0  0  0  0  0  0
   77.3665   -2.3603    1.0426 H   0  0  0  0  0  0  0  0  0  0  0  0
   75.4501   -4.1719    1.5975 H   0  0  0  0  0  0  0  0  0  0  0  0
   72.8609   -4.2088    1.3655 H   0  0  0  0  0  0  0  0  0  0  0  0
   83.7656    0.0518   -0.0268 Cu  0  0  0  0  0  0  0  0  0  0  0  0
   81.2832   -3.3994   -0.0349 C   0  0  0  0  0  0  0  0  0  0  0  0
   80.3171   -2.4517   -0.0885 C   0  0  0  0  0  0  0  0  0  0  0  0
   80.9825   -1.1820   -0.0405 C   0  0  0  0  0  0  0  0  0  0  0  0
   80.3162    0.0526   -0.0258 C   0  0  0  0  0  0  0  0  0  0  0  0
   80.9828    1.2870   -0.0127 C   0  0  0  0  0  0  0  0  0  0  0  0
   80.3179    2.5570    0.0331 C   0  0  0  0  0  0  0  0  0  0  0  0
   81.2845    3.5042   -0.0211 C   0  0  0  0  0  0  0  0  0  0  0  0
   82.5380    2.8102   -0.0898 C   0  0  0  0  0  0  0  0  0  0  0  0
   82.3221    1.4667   -0.0697 N   0  0  0  0  0  0  0  0  0  0  0  0
   83.7664    3.4378   -0.1904 C   0  0  0  0  0  0  0  0  0  0  0  0
   84.9943    2.8026   -0.2307 C   0  0  0  0  0  0  0  0  0  0  0  0
   86.2480    3.4860   -0.3681 C   0  0  0  0  0  0  0  0  0  0  0  0
   87.2140    2.5374   -0.3321 C   0  0  0  0  0  0  0  0  0  0  0  0
   86.5489    1.2782   -0.1623 C   0  0  0  0  0  0  0  0  0  0  0  0
   85.2097    1.4632   -0.1213 N   0  0  0  0  0  0  0  0  0  0  0  0
   87.2154    0.0508   -0.0285 C   0  0  0  0  0  0  0  0  0  0  0  0
   86.5483   -1.1761    0.1072 C   0  0  0  0  0  0  0  0  0  0  0  0
   87.2129   -2.4353    0.2799 C   0  0  0  0  0  0  0  0  0  0  0  0
   86.2464   -3.3833    0.3183 C   0  0  0  0  0  0  0  0  0  0  0  0
   84.9930   -2.6996    0.1792 C   0  0  0  0  0  0  0  0  0  0  0  0
   85.2091   -1.3606    0.0670 N   0  0  0  0  0  0  0  0  0  0  0  0
   83.7649   -3.3342    0.1383 C   0  0  0  0  0  0  0  0  0  0  0  0
   82.5370   -2.7060    0.0358 C   0  0  0  0  0  0  0  0  0  0  0  0
   82.3217   -1.3623    0.0167 N   0  0  0  0  0  0  0  0  0  0  0  0
   81.1755   -4.4667   -0.0457 H   0  0  0  0  0  0  0  0  0  0  0  0
   79.2555   -2.5795   -0.1678 H   0  0  0  0  0  0  0  0  0  0  0  0
   79.2563    2.6853    0.1110 H   0  0  0  0  0  0  0  0  0  0  0  0
   81.1771    4.5716   -0.0122 H   0  0  0  0  0  0  0  0  0  0  0  0
   83.7668    4.5172   -0.2422 H   0  0  0  0  0  0  0  0  0  0  0  0
   86.3558    4.5475   -0.4802 H   0  0  0  0  0  0  0  0  0  0  0  0
   88.2755    2.6571   -0.4245 H   0  0  0  0  0  0  0  0  0  0  0  0
   88.2742   -2.5552    0.3726 H   0  0  0  0  0  0  0  0  0  0  0  0
   86.3536   -4.4445    0.4335 H   0  0  0  0  0  0  0  0  0  0  0  0
   83.7646   -4.4136    0.1912 H   0  0  0  0  0  0  0  0  0  0  0  0
   94.6816    0.0404   -0.0243 Cu  0  0  0  0  0  0  0  0  0  0  0  0
   92.1971   -3.3014   -0.8818 C   0  0  0  0  0  0  0  0  0  0  0  0
   91.2313   -2.3691   -0.7022 C   0  0  0  0  0  0  0  0  0  0  0  0
   91.8969   -1.1498   -0.3452 C   0  0  0  0  0  0  0  0  0  0  0  0
   91.2310    0.0439   -0.0286 C   0  0  0  0  0  0  0  0  0  0  0  0
   91.8988    1.2359    0.2907 C   0  0  0  0  0  0  0  0  0  0  0  0
   91.2349    2.4556    0.6490 C   0  0  0  0  0  0  0  0  0  0  0  0
   92.2022    3.3855    0.8332 C   0  0  0  0  0  0  0  0  0  0  0  0
   93.4553    2.7287    0.5970 C   0  0  0  0  0  0  0  0  0  0  0  0
   93.2383    1.4224    0.2828 N   0  0  0  0  0  0  0  0  0  0  0  0
   94.6843    3.3601    0.6594 C   0  0  0  0  0  0  0  0  0  0  0  0
   95.9123    2.7538    0.4667 C   0  0  0  0  0  0  0  0  0  0  0  0
   97.1667    3.4484    0.5104 C   0  0  0  0  0  0  0  0  0  0  0  0
   98.1327    2.5200    0.3118 C   0  0  0  0  0  0  0  0  0  0  0  0
   97.4664    1.2593    0.1568 C   0  0  0  0  0  0  0  0  0  0  0  0
   96.1271    1.4296    0.2381 N   0  0  0  0  0  0  0  0  0  0  0  0
   98.1318    0.0376   -0.0239 C   0  0  0  0  0  0  0  0  0  0  0  0
   97.4645   -1.1832   -0.2044 C   0  0  0  0  0  0  0  0  0  0  0  0
   98.1287   -2.4452   -0.3574 C   0  0  0  0  0  0  0  0  0  0  0  0
   97.1612   -3.3725   -0.5536 C   0  0  0  0  0  0  0  0  0  0  0  0
   95.9079   -2.6757   -0.5114 C   0  0  0  0  0  0  0  0  0  0  0  0
   96.1250   -1.3514   -0.2855 N   0  0  0  0  0  0  0  0  0  0  0  0
   94.6790   -3.2804   -0.7034 C   0  0  0  0  0  0  0  0  0  0  0  0
   93.4511   -2.6465   -0.6443 C   0  0  0  0  0  0  0  0  0  0  0  0
   93.2360   -1.3392   -0.3336 N   0  0  0  0  0  0  0  0  0  0  0  0
   92.0890   -4.3338   -1.1527 H   0  0  0  0  0  0  0  0  0  0  0  0
   90.1698   -2.4735   -0.8107 H   0  0  0  0  0  0  0  0  0  0  0  0
   90.1733    2.5619    0.7550 H   0  0  0  0  0  0  0  0  0  0  0  0
   92.0956    4.4174    1.1066 H   0  0  0  0  0  0  0  0  0  0  0  0
   94.6850    4.4185    0.8776 H   0  0  0  0  0  0  0  0  0  0  0  0
   97.2749    4.5040    0.6684 H   0  0  0  0  0  0  0  0  0  0  0  0
   99.1947    2.6575    0.2579 H   0  0  0  0  0  0  0  0  0  0  0  0
   99.1904   -2.5845   -0.3034 H   0  0  0  0  0  0  0  0  0  0  0  0
   97.2676   -4.4286   -0.7091 H   0  0  0  0  0  0  0  0  0  0  0  0
   94.6781   -4.3394   -0.9189 H   0  0  0  0  0  0  0  0  0  0  0  0
  105.5967    0.0370   -0.0178 Cu  0  0  0  0  0  0  0  0  0  0  0  0
  103.1129   -2.9160   -1.8074 C   0  0  0  0  0  0  0  0  0  0  0  0
  102.1467   -2.0833   -1.3525 C   0  0  0  0  0  0  0  0  0  0  0  0
  102.8135   -1.0157   -0.6645 C   0  0  0  0  0  0  0  0  0  0  0  0
  102.1477    0.0363   -0.0180 C   0  0  0  0  0  0  0  0  0  0  0  0
  102.8130    1.0875    0.6303 C   0  0  0  0  0  0  0  0  0  0  0  0
  102.1459    2.1530    1.3211 C   0  0  0  0  0  0  0  0  0  0  0  0
  103.1120    2.9848    1.7782 C   0  0  0  0  0  0  0  0  0  0  0  0
  104.3673    2.4205    1.3732 C   0  0  0  0  0  0  0  0  0  0  0  0
  104.1526    1.2649    0.6874 N   0  0  0  0  0  0  0  0  0  0  0  0
  105.5962    2.9970    1.6387 C   0  0  0  0  0  0  0  0  0  0  0  0
  106.8258    2.4696    1.2884 C   0  0  0  0  0  0  0  0  0  0  0  0
  108.0816    3.1070    1.5629 C   0  0  0  0  0  0  0  0  0  0  0  0
  109.0479    2.2806    1.0966 C   0  0  0  0  0  0  0  0  0  0  0  0
  108.3798    1.1375    0.5442 C   0  0  0  0  0  0  0  0  0  0  0  0
  107.0401    1.2811    0.6616 N   0  0  0  0  0  0  0  0  0  0  0  0
  109.0439    0.0382   -0.0183 C   0  0  0  0  0  0  0  0  0  0  0  0
  108.3802   -1.0608   -0.5819 C   0  0  0  0  0  0  0  0  0  0  0  0
  109.0489   -2.2024   -1.1368 C   0  0  0  0  0  0  0  0  0  0  0  0
  108.0830   -3.0292   -1.6030 C   0  0  0  0  0  0  0  0  0  0  0  0
  106.8268   -2.3938   -1.3256 C   0  0  0  0  0  0  0  0  0  0  0  0
  107.0405   -1.2056   -0.6981 N   0  0  0  0  0  0  0  0  0  0  0  0
  105.5975   -2.9240   -1.6727 C   0  0  0  0  0  0  0  0  0  0  0  0
  104.3681   -2.3495   -1.4052 C   0  0  0  0  0  0  0  0  0  0  0  0
  104.1532   -1.1925   -0.7219 N   0  0  0  0  0  0  0  0  0  0  0  0
  103.0045   -3.8256   -2.3657 H   0  0  0  0  0  0  0  0  0  0  0  0
  101.0840   -2.1594   -1.4729 H   0  0  0  0  0  0  0  0  0  0  0  0
  101.0832    2.2282    1.4423 H   0  0  0  0  0  0  0  0  0  0  0  0
  103.0035    3.8925    2.3398 H   0  0  0  0  0  0  0  0  0  0  0  0
  105.5954    3.9402    2.1662 H   0  0  0  0  0  0  0  0  0  0  0  0
  108.1904    4.0594    2.0446 H   0  0  0  0  0  0  0  0  0  0  0  0
  110.1114    2.4192    1.1041 H   0  0  0  0  0  0  0  0  0  0  0  0
  110.1125   -2.3397   -1.1459 H   0  0  0  0  0  0  0  0  0  0  0  0
  108.1921   -3.9806   -2.0867 H   0  0  0  0  0  0  0  0  0  0  0  0
  105.5975   -3.8678   -2.1992 H   0  0  0  0  0  0  0  0  0  0  0  0
  2  3  2  0  0  0  0
  3  4  1  0  0  0  0
  4  5  4  0  0  0  0
  5  6  4  0  0  0  0
  6  7  1  0  0  0  0
  7  8  2  0  0  0  0
  8  9  1  0  0  0  0
  1 10  1  0  0  0  0
  6 10  4  0  0  0  0
  9 10  4  0  0  0  0
  9 11  4  0  0  0  0
 11 12  4  0  0  0  0
 12 13  1  0  0  0  0
 13 14  2  0  0  0  0
 14 15  1  0  0  0  0
  1 16  1  0  0  0  0
 12 16  4  0  0  0  0
 15 16  4  0  0  0  0
 15 17  4  0  0  0  0
 17 18  4  0  0  0  0
 18 19  1  0  0  0  0
 19 20  2  0  0  0  0
 20 21  1  0  0  0  0
  1 22  1  0  0  0  0
 18 22  4  0  0  0  0
 21 22  4  0  0  0  0
 21 23  4  0  0  0  0
  2 24  1  0  0  0  0
 23 24  4  0  0  0  0
  1 25  1  0  0  0  0
  4 25  4  0  0  0  0
 24 25  4  0  0  0  0
  2 26  1  0  0  0  0
  3 27  1  0  0  0  0
  7 28  1  0  0  0  0
  8 29  1  0  0  0  0
 11 30  1  0  0  0  0
 13 31  1  0  0  0  0
 14 32  1  0  0  0  0
 17 33  1  0  0  0  0
 19 34  1  0  0  0  0
 20 35  1  0  0  0  0
 23 36  1  0  0  0  0
 38 39  2  0  0  0  0
 39 40  1  0  0  0  0
 40 41  4  0  0  0  0
 41 42  4  0  0  0  0
 42 43  1  0  0  0  0
 43 44  2  0  0  0  0
 44 45  1  0  0  0  0
 37 46  1  0  0  0  0
 42 46  4  0  0  0  0
 45 46  4  0  0  0  0
 45 47  4  0  0  0  0
 47 48  4  0  0  0  0
 48 49  1  0  0  0  0
 49 50  2  0  0  0  0
 50 51  1  0  0  0  0
 37 52  1  0  0  0  0
 48 52  4  0  0  0  0
 51 52  4  0  0  0  0
 51 53  4  0  0  0  0
 53 54  4  0  0  0  0
 54 55  1  0  0  0  0
 55 56  2  0  0  0  0
 56 57  1  0  0  0  0
 37 58  1  0  0  0  0
 54 58  4  0  0  0  0
 57 58  4  0  0  0  0
 57 59  4  0  0  0  0
 38 60  1  0  0  0  0
 59 60  4  0  0  0  0
 37 61  1  0  0  0  0
 40 61  4  0  0  0  0
 60 61  4  0  0  0  0
 38 62  1  0  0  0  0
 39 63  1  0  0  0  0
 43 64  1  0  0  0  0
 44 65  1  0  0  0  0
 47 66  1  0  0  0  0
 49 67  1  0  0  0  0
 50 68  1  0  0  0  0
 53 69  1  0  0  0  0
 55 70  1  0  0  0  0
 56 71  1  0  0  0  0
 59 72  1  0  0  0  0
  5 73  1  0  0  0  0
 73 74  3  0  0  0  0
 75 76  3  0  0  0  0
 77 78  3  0  0  0  0
 79 80  3  0  0  0  0
 81 82  3  0  0  0  0
 41 84  1  0  0  0  0
 83 84  3  0  0  0  0
 86 87  2  0  0  0  0
 87 88  1  0  0  0  0
 74 89  1  0  0  0  0
 88 89  4  0  0  0  0
 89 90  4  0  0  0  0
 90 91  1  0  0  0  0
 91 92  2  0  0  0  0
 92 93  1  0  0  0  0
 85 94  1  0  0  0  0
 90 94  4  0  0  0  0
 93 94  4  0  0  0  0
 93 95  4  0  0  0  0
 95 96  4  0  0  0  0
 96 97  1  0  0  0  0
 97 98  2  0  0  0  0
 98 99  1  0  0  0  0
 85100  1  0  0  0  0
 96100  4  0  0  0  0
 99100  4  0  0  0  0
 75101  1  0  0  0  0
 99101  4  0  0  0  0
101102  4  0  0  0  0
102103  1  0  0  0  0
103104  2  0  0  0  0
104105  1  0  0  0  0
 85106  1  0  0  0  0
102106  4  0  0  0  0
105106  4  0  0  0  0
105107  4  0  0  0  0
 86108  1  0  0  0  0
107108  4  0  0  0  0
 85109  1  0  0  0  0
 88109  4  0  0  0  0
108109  4  0  0  0  0
 86110  1  0  0  0  0
 87111  1  0  0  0  0
 91112  1  0  0  0  0
 92113  1  0  0  0  0
 95114  1  0  0  0  0
 97115  1  0  0  0  0
 98116  1  0  0  0  0
103117  1  0  0  0  0
104118  1  0  0  0  0
107119  1  0  0  0  0
121122  2  0  0  0  0
122123  1  0  0  0  0
 76124  1  0  0  0  0
123124  4  0  0  0  0
124125  4  0  0  0  0
125126  1  0  0  0  0
126127  2  0  0  0  0
127128  1  0  0  0  0
120129  1  0  0  0  0
125129  4  0  0  0  0
128129  4  0  0  0  0
128130  4  0  0  0  0
130131  4  0  0  0  0
131132  1  0  0  0  0
132133  2  0  0  0  0
133134  1  0  0  0  0
120135  1  0  0  0  0
131135  4  0  0  0  0
134135  4  0  0  0  0
 77136  1  0  0  0  0
134136  4  0  0  0  0
136137  4  0  0  0  0
137138  1  0  0  0  0
138139  2  0  0  0  0
139140  1  0  0  0  0
120141  1  0  0  0  0
137141  4  0  0  0  0
140141  4  0  0  0  0
140142  4  0  0  0  0
121143  1  0  0  0  0
142143  4  0  0  0  0
120144  1  0  0  0  0
123144  4  0  0  0  0
143144  4  0  0  0  0
121145  1  0  0  0  0
122146  1  0  0  0  0
126147  1  0  0  0  0
127148  1  0  0  0  0
130149  1  0  0  0  0
132150  1  0  0  0  0
133151  1  0  0  0  0
138152  1  0  0  0  0
139153  1  0  0  0  0
142154  1  0  0  0  0
156157  2  0  0  0  0
157158  1  0  0  0  0
 78159  1  0  0  0  0
158159  4  0  0  0  0
159160  4  0  0  0  0
160161  1  0  0  0  0
161162  2  0  0  0  0
162163  1  0  0  0  0
155164  1  0  0  0  0
160164  4  0  0  0  0
163164  4  0  0  0  0
163165  4  0  0  0  0
165166  4  0  0  0  0
166167  1  0  0  0  0
167168  2  0  0  0  0
168169  1  0  0  0  0
155170  1  0  0  0  0
166170  4  0  0  0  0
169170  4  0  0  0  0
 79171  1  0  0  0  0
169171  4  0  0  0  0
171172  4  0  0  0  0
172173  1  0  0  0  0
173174  2  0  0  0  0
174175  1  0  0  0  0
155176  1  0  0  0  0
172176  4  0  0  0  0
175176  4  0  0  0  0
175177  4  0  0  0  0
156178  1  0  0  0  0
177178  4  0  0  0  0
155179  1  0  0  0  0
158179  4  0  0  0  0
178179  4  0  0  0  0
156180  1  0  0  0  0
157181  1  0  0  0  0
161182  1  0  0  0  0
162183  1  0  0  0  0
165184  1  0  0  0  0
167185  1  0  0  0  0
168186  1  0  0  0  0
173187  1  0  0  0  0
174188  1  0  0  0  0
177189  1  0  0  0  0
191192  2  0  0  0  0
192193  1  0  0  0  0
 80194  1  0  0  0  0
193194  4  0  0  0  0
194195  4  0  0  0  0
195196  1  0  0  0  0
196197  2  0  0  0  0
197198  1  0  0  0  0
190199  1  0  0  0  0
195199  4  0  0  0  0
198199  4  0  0  0  0
198200  4  0  0  0  0
200201  4  0  0  0  0
201202  1  0  0  0  0
202203  2  0  0  0  0
203204  1  0  0  0  0
190205  1  0  0  0  0
201205  4  0  0  0  0
204205  4  0  0  0  0
 81206  1  0  0  0  0
204206  4  0  0  0  0
206207  4  0  0  0  0
207208  1  0  0  0  0
208209  2  0  0  0  0
209210  1  0  0  0  0
190211  1  0  0  0  0
207211  4  0  0  0  0
210211  4  0  0  0  0
210212  4  0  0  0  0
191213  1  0  0  0  0
212213  4  0  0  0  0
190214  1  0  0  0  0
193214  4  0  0  0  0
213214  4  0  0  0  0
191215  1  0  0  0  0
192216  1  0  0  0  0
196217  1  0  0  0  0
197218  1  0  0  0  0
200219  1  0  0  0  0
202220  1  0  0  0  0
203221  1  0  0  0  0
208222  1  0  0  0  0
209223  1  0  0  0  0
212224  1  0  0  0  0
226227  2  0  0  0  0
227228  1  0  0  0  0
 82229  1  0  0  0  0
228229  4  0  0  0  0
229230  4  0  0  0  0
230231  1  0  0  0  0
231232  2  0  0  0  0
232233  1  0  0  0  0
225234  1  0  0  0  0
230234  4  0  0  0  0
233234  4  0  0  0  0
233235  4  0  0  0  0
235236  4  0  0  0  0
236237  1  0  0  0  0
237238  2  0  0  0  0
238239  1  0  0  0  0
225240  1  0  0  0  0
236240  4  0  0  0  0
239240  4  0  0  0  0
 83241  1  0  0  0  0
239241  4  0  0  0  0
241242  4  0  0  0  0
242243  1  0  0  0  0
243244  2  0  0  0  0
244245  1  0  0  0  0
225246  1  0  0  0  0
242246  4  0  0  0  0
245246  4  0  0  0  0
245247  4  0  0  0  0
226248  1  0  0  0  0
247248  4  0  0  0  0
225249  1  0  0  0  0
228249  4  0  0  0  0
248249  4  0  0  0  0
226250  1  0  0  0  0
227251  1  0  0  0  0
231252  1  0  0  0  0
232253  1  0  0  0  0
235254  1  0  0  0  0
237255  1  0  0  0  0
238256  1  0  0  0  0
243257  1  0  0  0  0
244258  1  0  0  0  0
247259  1  0  0  0  0
M  END
