232
 xtb: 6.4.1 (bd6e46d)
Co       36.23394361340178    0.00621278969931    0.00036345133613
C        38.72284590859011   -3.40444042119441    0.14528218757019
C        39.67667574839809   -2.44783123487256    0.08409475845333
C        38.98872618522883   -1.19417527032573    0.02986421850753
C        39.65511588393073    0.03220967025477   -0.01276601163348
C        38.97008737859934    1.24890753936318   -0.00156188692231
C        39.63878260981945    2.51388326295423    0.02069698388072
C        38.67069268040568    3.45657632072723    0.07333227123355
C        37.42157671158036    2.75771557984237    0.07033877377106
N        37.61619737564509    1.40196856773702    0.02583275926155
C        36.20208335794091    3.39933463030683    0.08654569182674
C        34.99587203692460    2.73647877035089    0.02237488332835
C        33.73174121672793    3.41147133796574   -0.02311940551241
C        32.78764401608491    2.45116882427670   -0.12758314148531
C        33.48145120843581    1.19618551195938   -0.13131345396161
N        34.83265403250711    1.38049069384227   -0.04054245483367
C        32.83690923285325   -0.02064158321052   -0.19374042914210
C        33.50079325110669   -1.22714828843229   -0.13464106095467
C        32.82716130757655   -2.49306882394042   -0.13594923627858
C        33.78559803732445   -3.43805664514598   -0.02256943584078
C        35.03829154879366   -2.74287865596085    0.03375595505572
N        34.85422428077548   -1.38992273170453   -0.03504056670059
C        36.25375398082637   -3.38604185036175    0.12103981782197
C        37.46313356114248   -2.72548200069385    0.11565672533941
N        37.63726768512301   -1.36773004930596    0.04950636053807
H        38.83884421208135   -4.47008650768875    0.18384115348600
H        40.74388474876938   -2.55483774348824    0.07460624558776
H        40.70416096303008    2.63724249716219   -0.00161813262367
H        38.77049472616957    4.52442759186973    0.08969093782547
H        36.19353058470542    4.47860762199169    0.11282922459354
H        33.61118607635170    4.47742647002370    0.01306046270507
H        31.72036478859930    2.55523134809176   -0.17138977245758
H        31.75813939913956   -0.02902325067964   -0.24174097315116
H        31.76196832390982   -2.61390020166100   -0.18842669746990
H        33.68154653828127   -4.50561850271671    0.01391647349219
H        36.26146672935967   -4.46500622381008    0.15834269796540
Co      103.38045891111034    0.03479470139829   -0.00638181625793
C       100.89431189052580    3.38976377100356    0.64525312097513
C        99.93977093884989    2.45500497120149    0.43646977018633
C       100.62657651550033    1.22143381544140    0.20288216486403
C        99.95882925280520    0.01434834128709   -0.01312537029757
C       100.64238044638338   -1.19108958438016   -0.18352261761711
C        99.97224775083777   -2.44423420477244   -0.35206478326742
C       100.93964516476936   -3.38250858325790   -0.46339055936720
C       102.18958680986309   -2.69104296218922   -0.37229126026425
N       101.99630980501931   -1.34585409951288   -0.19646112634263
C       103.40814726927813   -3.32543128329313   -0.48049852170377
C       104.61469245991034   -2.66108958658728   -0.44407278794983
C       105.87746115405055   -3.31939988434400   -0.61057945316810
C       106.82328288058791   -2.35740136666695   -0.54437910792495
C       106.13172302944726   -1.12020612021597   -0.32647598678345
N       104.78005146217821   -1.31504925276768   -0.27091307892191
C       106.77896239790279    0.08650268050045   -0.16872983667520
C       106.11670276086637    1.26665208753541    0.09289957748456
C       106.79236005209610    2.51227674444372    0.31269400977724
C       105.83370212700201    3.42965310684791    0.56509165755610
C       104.57915673622590    2.73999632571591    0.48589387904023
N       104.76229693433231    1.41563656654495    0.19957595879424
C       103.36336126785213    3.36657649935716    0.65208136772388
C       102.15331455621084    2.71945204740012    0.52574396234974
N       101.97819691190155    1.38747359538083    0.25495146523565
H       100.77914037625067    4.43889005637613    0.84061033693618
H        98.87263356136950    2.56504356748829    0.43734986742657
H        98.90667050837605   -2.56278049221225   -0.37845624853687
H       100.83897253997517   -4.43897075384446   -0.61464325414385
H       103.41565825976329   -4.39322879385379   -0.63472717813634
H       105.99644426485698   -4.37467073081486   -0.76021492736860
H       107.89059287633916   -2.45336844090439   -0.60195546962238
H       107.85816464129675    0.10015190959096   -0.20136899190041
H       107.85830949665777    2.63609805050013    0.30147964111498
H       105.93837084011884    4.47683791894403    0.78041242244890
H       103.35619481006923    4.42717567316352    0.85799594923670
C        41.05306337475437    0.04213878891875   -0.03452178424732
C        42.27059360156999    0.04993648205334   -0.04827321886920
C        43.61316104384566    0.05629090601620   -0.05549916951128
C        44.83087651576411    0.05933974891054   -0.05595152224975
C        54.48338278373168    0.05569635983518   -0.02675519808298
C        55.70136540311318    0.05289325887474   -0.02800281030349
C        57.04381762850797    0.05038155666827   -0.02765848097578
C        58.26180687271043    0.04719635955165   -0.02636523999892
C        67.91731132381193    0.05156743110608   -0.01913801615493
C        69.13536660117796    0.04584769019432   -0.01953833396542
C        70.47794034500819    0.04319852458077   -0.02205533259157
C        71.69599503409154    0.03707263326181   -0.02353005823402
C        81.35166063810247    0.03746449921565   -0.02801369683958
C        82.56965054857120    0.03302640329792   -0.02769973470375
C        83.91212445996950    0.03057630612668   -0.02718748623059
C        85.13009959805125    0.02613470177629   -0.02606036037628
C        94.78269472456500    0.01360347681402   -0.04435334250596
C        96.00036414453763    0.01008607922833   -0.04921634162566
C        97.34308961303972    0.00980226710853   -0.04421195105797
C        98.56062962362627    0.00953606807654   -0.03220845821480
Co       49.65700511347794    0.06011331850780   -0.02497115238710
C        47.18624921556923   -3.35139948928076    0.33419179543165
C        46.22552975032958   -2.40722680614273    0.21540869010763
C        46.90472462093409   -1.15450263788234    0.08460597153510
C        46.22850856430404    0.06009808579419   -0.04875014526439
C        46.90633961488950    1.27516518799041   -0.16798434189323
C        46.22891888859681    2.52887028466679   -0.29841698539719
C        47.19111871758329    3.47456664935575   -0.39025690946392
C        48.44424286169191    2.78751888032658   -0.31590468798392
N        48.25885112161970    1.43667831231098   -0.17808324854008
C        49.65919644795607    3.43292403294143   -0.38435844227779
C        50.87299035291982    2.78482417081993   -0.32023003337144
C        52.12690167775590    3.46964692649984   -0.40059537188419
C        53.08798622426483    2.52337160389800   -0.30288256937574
C        52.40921919016697    1.27157105626593   -0.16235988157920
N        51.05684230844591    1.43448845176974   -0.17487344751389
C        53.08580474061350    0.05749886804209   -0.02461725677328
C        52.40732539004601   -1.15477735834922    0.11968898197984
C        53.08419537509418   -2.40626710189493    0.27169635619181
C        52.12164894722280   -3.34941468340374    0.38398814798740
C        50.86881677087279   -2.66343740661331    0.29719879813839
N        51.05470161461218   -1.31512944384353    0.13671546375453
C        49.65409156894717   -3.30961795107940    0.36251792111956
C        48.44026867376086   -2.66472096630340    0.27303246609584
N        48.25687017242389   -1.31542368919839    0.11831274305609
H        47.07868684886665   -4.41223284492331    0.45136505058265
H        45.15931484837375   -2.52203030699132    0.21693685390795
H        45.16249162464995    2.64334562252536   -0.31273561496718
H        47.08461049447052    4.53618313822329   -0.49922128073940
H        49.66000490672015    4.50634740321947   -0.49910180479453
H        52.23404053732096    4.53054157695272   -0.51789296427889
H        54.15425270172881    2.63681476215048   -0.32005894339358
H        54.15056206025771   -2.52096754196111    0.28786615621411
H        52.22766073754797   -4.40908507604219    0.51050303179436
H        49.65373572845287   -4.38204257039923    0.48596473554358
Co       63.08923514997091    0.05050374134102   -0.01362714026197
C        60.62309407909861   -3.35987019489309    0.38138544440731
C        59.66063646033616   -2.41693174741414    0.26643535242972
C        60.33765051839448   -1.16488537243331    0.11964776318968
C        59.65937140342569    0.04751096801758   -0.02444136736562
C        60.33657131933587    1.26097855992008   -0.16504840772574
C        59.65832971326296    2.51233053277271   -0.31209456385928
C        60.61984417692207    3.45700709584583   -0.42036994632639
C        61.87345950867882    2.77178993942047   -0.33838659120926
N        61.68898825315894    1.42287423529467   -0.18129994323297
C        63.08771117895081    3.41791000601620   -0.41250937288255
C        64.30256326013226    2.77300665538063   -0.33700252461530
C        65.55543502525364    3.45965819492599   -0.41811167083950
C        66.51796268521500    2.51614715130033   -0.30856843249034
C        65.84111440651141    1.26400682150108   -0.16189747174651
N        64.48844926339548    1.42442582712108   -0.17918286723637
C        66.51961892303640    0.05153476151250   -0.01904363758039
C        65.84222111076976   -1.16137701029098    0.12626707411734
C        66.52027480056287   -2.41238734636632    0.27711457879969
C        65.55866829297977   -3.35637415213766    0.39053208725279
C        64.30513240965114   -2.67115265244640    0.30774207566711
N        64.48975962720760   -1.32280417299232    0.14614948778760
C        63.09090623715980   -3.31722037039200    0.38317972654297
C        61.87602676392464   -2.67296226535210    0.30317755425167
N        61.69025279581263   -1.32469012560417    0.14246191923849
H        60.51692742609746   -4.42016151988248    0.50280077751329
H        58.59425086093253   -2.53223064248758    0.27601078060190
H        58.59214120896102    2.62629043470887   -0.32819122018863
H        60.51300118517987    4.51667202561613   -0.54820343251057
H        63.08744415181145    4.48950010261046   -0.54319868358088
H        65.66145545665321    4.51911071446638   -0.54661390718850
H        67.58436051238148    2.63076370599591   -0.32458488827073
H        67.58646571970287   -2.52701165202832    0.28912379231485
H        65.66535257859805   -4.41668665447242    0.51318511776031
H        63.09124524242427   -4.38979698934824    0.50566970896021
Co       76.52408744007705    0.03538865511096   -0.04338992842201
C        74.05688585913057   -3.37217114640543    0.36976389582390
C        73.09464476890400   -2.42819401612596    0.26159779380490
C        73.77187500530276   -1.17625039845756    0.11498300004853
C        73.09368907158061    0.03665865300508   -0.02578163617477
C        73.77143185776808    1.24944042641735   -0.17044003684138
C        73.09378554732496    2.50101874590728   -0.31838292296384
C        74.05569751520922    3.44450661035355   -0.43326949055077
C        75.30901060060462    2.75848789900324   -0.35366417924125
N        75.12397519320686    1.41010430948527   -0.19308553258925
C        76.52342603383147    3.40382892991409   -0.43215254350734
C        77.73813270225030    2.75887121674361   -0.35523522341341
C        78.99126178834979    3.44505188107690   -0.43656287540248
C        79.95346045278822    2.50168894998819   -0.32287665875197
C        79.27610788215027    1.25011402245831   -0.17376240367663
N        77.92355131414506    1.41052981212255   -0.19465448450917
C        79.95407578475965    0.03762598360009   -0.02906251954111
C        79.27649331986301   -1.17537914379126    0.11382745910685
C        79.95431163172047   -2.42688715107005    0.26156710337587
C        78.99248034480888   -3.37113312849701    0.37079195021818
C        77.73909548460463   -2.68548063872002    0.28890850628527
N        77.92399350495582   -1.33681276500258    0.13032378161068
C        76.52465266704147   -3.33120853369096    0.36346037357345
C        75.30997127081166   -2.68593138440650    0.28845733056754
N        75.12446062882977   -1.33722385170090    0.13094622707017
H        73.95090165169051   -4.43136086251320    0.50272725469985
H        72.02846195272497   -2.54252825878245    0.28135886226883
H        72.02741765889689    2.61617050896876   -0.32475108073892
H        73.94902945069417    4.50527270781890   -0.54985135766212
H        76.52303140814531    4.47704538212667   -0.54848848523108
H        79.09737600412231    4.50601251458060   -0.55314998800958
H        81.01966770990016    2.61723404581249   -0.33029565995626
H        81.02070350734914   -2.54041027933360    0.28209679380755
H        79.09934090075375   -4.42991787559615    0.50526067666901
H        76.52504547717426   -4.40216171688618    0.50025710507362
Co       89.95661177264668    0.02321287790975   -0.00808037982177
C        87.48573645026853   -3.38635358690504    0.36575625972671
C        86.52488827485872   -2.44036589787136    0.26303866540237
C        87.20396329827558   -1.18938142554717    0.11657135989222
C        86.52770218788139    0.02466432707333   -0.02311601422359
C        87.20655078369595    1.23807478218299   -0.15575752394611
C        86.53004588712579    2.49146748552004   -0.29310463383969
C        87.49277245622615    3.43707699488046   -0.38051201548896
C        88.74540773547237    2.75029614214063   -0.29706350580593
N        88.55914061883603    1.39938702733373   -0.16069806870573
C        89.96030485210872    3.39760366314197   -0.34605857815438
C        91.17400829047301    2.75010597377753   -0.27496773992532
C        92.42834923176734    3.43654743181521   -0.33253993835799
C        93.38891001618694    2.48846715750761   -0.24834487364234
C        92.70929063983802    1.23386794912516   -0.13923915753011
N        91.35701137142561    1.39748870130975   -0.15274454237799
C        93.38490043944175    0.01577222130141   -0.03980169439463
C        92.70657293653137   -1.19957644308630    0.07259428312400
C        93.38343317295485   -2.45534441386472    0.18496679117586
C        92.42097733835308   -3.39894446025335    0.29394927950439
C        91.16825127968399   -2.70885510101709    0.24530328174392
N        91.35407535054446   -1.35803670499741    0.10739025665606
C        89.95334728415554   -3.35197468970843    0.33333577539436
C        88.73979624484177   -2.70250931884544    0.27957128972883
N        88.55631191092647   -1.35252551073520    0.13042838560633
H        87.37780190507836   -4.44813148106863    0.47436538664720
H        85.45831715564101   -2.55372282278476    0.27653210645876
H        85.46404694537794    2.60548985896795   -0.32055283221036
H        87.38755613063620    4.49731882608142   -0.50301984386960
H        89.96161068820160    4.47051314854802   -0.46270278614374
H        92.53672716819226    4.49812116530845   -0.43616907106639
H        94.45553144275013    2.60107461308295   -0.25917052992684
H        94.44947123319992   -2.57308520454376    0.17903735924459
H        92.52660294135454   -4.46275217696616    0.38743243782153
H        89.95182846897491   -4.42725520529661    0.43313546320987
