
  xtb     11202103063D
 xtb: 6.4.1 (bd6e46d)
232279  0     0  0            999 V2000
   36.2329    0.0062   -0.0008 Co  0  0  0  0  0  0  0  0  0  0  0  0
   38.7230   -3.4051    0.1294 C   0  0  0  0  0  0  0  0  0  0  0  0
   39.6767   -2.4480    0.0757 C   0  0  0  0  0  0  0  0  0  0  0  0
   38.9886   -1.1942    0.0268 C   0  0  0  0  0  0  0  0  0  0  0  0
   39.6550    0.0322   -0.0126 C   0  0  0  0  0  0  0  0  0  0  0  0
   38.9700    1.2489   -0.0050 C   0  0  0  0  0  0  0  0  0  0  0  0
   39.6388    2.5139    0.0117 C   0  0  0  0  0  0  0  0  0  0  0  0
   38.6708    3.4569    0.0567 C   0  0  0  0  0  0  0  0  0  0  0  0
   37.4216    2.7582    0.0564 C   0  0  0  0  0  0  0  0  0  0  0  0
   37.6161    1.4022    0.0192 N   0  0  0  0  0  0  0  0  0  0  0  0
   36.2023    3.4000    0.0714 C   0  0  0  0  0  0  0  0  0  0  0  0
   34.9957    2.7371    0.0180 C   0  0  0  0  0  0  0  0  0  0  0  0
   33.7314    3.4121   -0.0201 C   0  0  0  0  0  0  0  0  0  0  0  0
   32.7862    2.4514   -0.1093 C   0  0  0  0  0  0  0  0  0  0  0  0
   33.4799    1.1963   -0.1130 C   0  0  0  0  0  0  0  0  0  0  0  0
   34.8318    1.3808   -0.0354 N   0  0  0  0  0  0  0  0  0  0  0  0
   32.8347   -0.0205   -0.1669 C   0  0  0  0  0  0  0  0  0  0  0  0
   33.4991   -1.2271   -0.1164 C   0  0  0  0  0  0  0  0  0  0  0  0
   32.8255   -2.4930   -0.1178 C   0  0  0  0  0  0  0  0  0  0  0  0
   33.7850   -3.4385   -0.0195 C   0  0  0  0  0  0  0  0  0  0  0  0
   35.0380   -2.7434    0.0296 C   0  0  0  0  0  0  0  0  0  0  0  0
   34.8533   -1.3901   -0.0298 N   0  0  0  0  0  0  0  0  0  0  0  0
   36.2540   -3.3869    0.1064 C   0  0  0  0  0  0  0  0  0  0  0  0
   37.4632   -2.7261    0.1023 C   0  0  0  0  0  0  0  0  0  0  0  0
   37.6372   -1.3680    0.0432 N   0  0  0  0  0  0  0  0  0  0  0  0
   38.8389   -4.4704    0.1775 H   0  0  0  0  0  0  0  0  0  0  0  0
   40.7439   -2.5548    0.0725 H   0  0  0  0  0  0  0  0  0  0  0  0
   40.7042    2.6372   -0.0039 H   0  0  0  0  0  0  0  0  0  0  0  0
   38.7705    4.5246    0.0831 H   0  0  0  0  0  0  0  0  0  0  0  0
   36.1937    4.4789    0.1065 H   0  0  0  0  0  0  0  0  0  0  0  0
   33.6112    4.4777    0.0124 H   0  0  0  0  0  0  0  0  0  0  0  0
   31.7198    2.5552   -0.1633 H   0  0  0  0  0  0  0  0  0  0  0  0
   31.7573   -0.0290   -0.2309 H   0  0  0  0  0  0  0  0  0  0  0  0
   31.7613   -2.6138   -0.1804 H   0  0  0  0  0  0  0  0  0  0  0  0
   33.6815   -4.5058    0.0133 H   0  0  0  0  0  0  0  0  0  0  0  0
   36.2616   -4.4653    0.1522 H   0  0  0  0  0  0  0  0  0  0  0  0
  103.3814    0.0363   -0.0009 Co  0  0  0  0  0  0  0  0  0  0  0  0
  100.8941    3.3937    0.6301 C   0  0  0  0  0  0  0  0  0  0  0  0
   99.9396    2.4572    0.4295 C   0  0  0  0  0  0  0  0  0  0  0  0
  100.6266    1.2226    0.2020 C   0  0  0  0  0  0  0  0  0  0  0  0
   99.9589    0.0148   -0.0102 C   0  0  0  0  0  0  0  0  0  0  0  0
  100.6425   -1.1900   -0.1841 C   0  0  0  0  0  0  0  0  0  0  0  0
   99.9723   -2.4423   -0.3584 C   0  0  0  0  0  0  0  0  0  0  0  0
  100.9397   -3.3796   -0.4777 C   0  0  0  0  0  0  0  0  0  0  0  0
  102.1896   -2.6885   -0.3838 C   0  0  0  0  0  0  0  0  0  0  0  0
  101.9965   -1.3443   -0.2002 N   0  0  0  0  0  0  0  0  0  0  0  0
  103.4081   -3.3229   -0.4933 C   0  0  0  0  0  0  0  0  0  0  0  0
  104.6151   -2.6602   -0.4453 C   0  0  0  0  0  0  0  0  0  0  0  0
  105.8782   -3.3197   -0.6038 C   0  0  0  0  0  0  0  0  0  0  0  0
  106.8250   -2.3601   -0.5211 C   0  0  0  0  0  0  0  0  0  0  0  0
  106.1334   -1.1229   -0.3033 C   0  0  0  0  0  0  0  0  0  0  0  0
  104.7810   -1.3156   -0.2617 N   0  0  0  0  0  0  0  0  0  0  0  0
  106.7810    0.0823   -0.1365 C   0  0  0  0  0  0  0  0  0  0  0  0
  106.1181    1.2641    0.1157 C   0  0  0  0  0  0  0  0  0  0  0  0
  106.7935    2.5098    0.3353 C   0  0  0  0  0  0  0  0  0  0  0  0
  105.8339    3.4304    0.5711 C   0  0  0  0  0  0  0  0  0  0  0  0
  104.5792    2.7420    0.4841 C   0  0  0  0  0  0  0  0  0  0  0  0
  104.7630    1.4157    0.2084 N   0  0  0  0  0  0  0  0  0  0  0  0
  103.3630    3.3707    0.6386 C   0  0  0  0  0  0  0  0  0  0  0  0
  102.1532    2.7230    0.5136 C   0  0  0  0  0  0  0  0  0  0  0  0
  101.9782    1.3895    0.2509 N   0  0  0  0  0  0  0  0  0  0  0  0
  100.7791    4.4404    0.8343 H   0  0  0  0  0  0  0  0  0  0  0  0
   98.8726    2.5655    0.4357 H   0  0  0  0  0  0  0  0  0  0  0  0
   98.9067   -2.5623   -0.3799 H   0  0  0  0  0  0  0  0  0  0  0  0
  100.8390   -4.4379   -0.6207 H   0  0  0  0  0  0  0  0  0  0  0  0
  103.4156   -4.3922   -0.6404 H   0  0  0  0  0  0  0  0  0  0  0  0
  105.9965   -4.3745   -0.7599 H   0  0  0  0  0  0  0  0  0  0  0  0
  107.8912   -2.4546   -0.5922 H   0  0  0  0  0  0  0  0  0  0  0  0
  107.8589    0.0984   -0.1887 H   0  0  0  0  0  0  0  0  0  0  0  0
  107.8588    2.6348    0.3111 H   0  0  0  0  0  0  0  0  0  0  0  0
  105.9383    4.4774    0.7805 H   0  0  0  0  0  0  0  0  0  0  0  0
  103.3560    4.4288    0.8520 H   0  0  0  0  0  0  0  0  0  0  0  0
   41.0531    0.0422   -0.0318 C   0  0  0  0  0  0  0  0  0  0  0  0
   42.2706    0.0500   -0.0442 C   0  0  0  0  0  0  0  0  0  0  0  0
   43.6132    0.0564   -0.0508 C   0  0  0  0  0  0  0  0  0  0  0  0
   44.8309    0.0595   -0.0517 C   0  0  0  0  0  0  0  0  0  0  0  0
   54.4834    0.0563   -0.0252 C   0  0  0  0  0  0  0  0  0  0  0  0
   55.7014    0.0535   -0.0264 C   0  0  0  0  0  0  0  0  0  0  0  0
   57.0438    0.0509   -0.0265 C   0  0  0  0  0  0  0  0  0  0  0  0
   58.2618    0.0476   -0.0260 C   0  0  0  0  0  0  0  0  0  0  0  0
   67.9173    0.0512   -0.0194 C   0  0  0  0  0  0  0  0  0  0  0  0
   69.1354    0.0456   -0.0186 C   0  0  0  0  0  0  0  0  0  0  0  0
   70.4780    0.0431   -0.0196 C   0  0  0  0  0  0  0  0  0  0  0  0
   71.6960    0.0372   -0.0196 C   0  0  0  0  0  0  0  0  0  0  0  0
   81.3517    0.0381   -0.0235 C   0  0  0  0  0  0  0  0  0  0  0  0
   82.5696    0.0335   -0.0250 C   0  0  0  0  0  0  0  0  0  0  0  0
   83.9121    0.0307   -0.0266 C   0  0  0  0  0  0  0  0  0  0  0  0
   85.1301    0.0260   -0.0276 C   0  0  0  0  0  0  0  0  0  0  0  0
   94.7827    0.0129   -0.0414 C   0  0  0  0  0  0  0  0  0  0  0  0
   96.0004    0.0096   -0.0441 C   0  0  0  0  0  0  0  0  0  0  0  0
   97.3431    0.0096   -0.0383 C   0  0  0  0  0  0  0  0  0  0  0  0
   98.5607    0.0096   -0.0271 C   0  0  0  0  0  0  0  0  0  0  0  0
   49.6571    0.0602   -0.0243 Co  0  0  0  0  0  0  0  0  0  0  0  0
   47.1865   -3.3516    0.3342 C   0  0  0  0  0  0  0  0  0  0  0  0
   46.2257   -2.4073    0.2173 C   0  0  0  0  0  0  0  0  0  0  0  0
   46.9048   -1.1545    0.0868 C   0  0  0  0  0  0  0  0  0  0  0  0
   46.2285    0.0602   -0.0455 C   0  0  0  0  0  0  0  0  0  0  0  0
   46.9063    1.2752   -0.1657 C   0  0  0  0  0  0  0  0  0  0  0  0
   46.2287    2.5288   -0.2963 C   0  0  0  0  0  0  0  0  0  0  0  0
   47.1909    3.4744   -0.3900 C   0  0  0  0  0  0  0  0  0  0  0  0
   48.4441    2.7874   -0.3164 C   0  0  0  0  0  0  0  0  0  0  0  0
   48.2588    1.4367   -0.1772 N   0  0  0  0  0  0  0  0  0  0  0  0
   49.6590    3.4328   -0.3861 C   0  0  0  0  0  0  0  0  0  0  0  0
   50.8728    2.7848   -0.3215 C   0  0  0  0  0  0  0  0  0  0  0  0
   52.1267    3.4697   -0.4020 C   0  0  0  0  0  0  0  0  0  0  0  0
   53.0878    2.5236   -0.3030 C   0  0  0  0  0  0  0  0  0  0  0  0
   52.4091    1.2719   -0.1618 C   0  0  0  0  0  0  0  0  0  0  0  0
   51.0567    1.4346   -0.1750 N   0  0  0  0  0  0  0  0  0  0  0  0
   53.0858    0.0579   -0.0235 C   0  0  0  0  0  0  0  0  0  0  0  0
   52.4074   -1.1545    0.1202 C   0  0  0  0  0  0  0  0  0  0  0  0
   53.0844   -2.4060    0.2715 C   0  0  0  0  0  0  0  0  0  0  0  0
   52.1220   -3.3494    0.3825 C   0  0  0  0  0  0  0  0  0  0  0  0
   50.8691   -2.6635    0.2958 C   0  0  0  0  0  0  0  0  0  0  0  0
   51.0548   -1.3150    0.1365 N   0  0  0  0  0  0  0  0  0  0  0  0
   49.6544   -3.3098    0.3607 C   0  0  0  0  0  0  0  0  0  0  0  0
   48.4405   -2.6649    0.2724 C   0  0  0  0  0  0  0  0  0  0  0  0
   48.2570   -1.3154    0.1191 N   0  0  0  0  0  0  0  0  0  0  0  0
   47.0788   -4.4123    0.4511 H   0  0  0  0  0  0  0  0  0  0  0  0
   45.1594   -2.5220    0.2178 H   0  0  0  0  0  0  0  0  0  0  0  0
   45.1624    2.6433   -0.3118 H   0  0  0  0  0  0  0  0  0  0  0  0
   47.0845    4.5361   -0.4994 H   0  0  0  0  0  0  0  0  0  0  0  0
   49.6599    4.5063   -0.4999 H   0  0  0  0  0  0  0  0  0  0  0  0
   52.2339    4.5305   -0.5185 H   0  0  0  0  0  0  0  0  0  0  0  0
   54.1542    2.6369   -0.3200 H   0  0  0  0  0  0  0  0  0  0  0  0
   54.1506   -2.5209    0.2879 H   0  0  0  0  0  0  0  0  0  0  0  0
   52.2278   -4.4091    0.5098 H   0  0  0  0  0  0  0  0  0  0  0  0
   49.6539   -4.3821    0.4851 H   0  0  0  0  0  0  0  0  0  0  0  0
   63.0893    0.0494   -0.0223 Co  0  0  0  0  0  0  0  0  0  0  0  0
   60.6229   -3.3603    0.3764 C   0  0  0  0  0  0  0  0  0  0  0  0
   59.6605   -2.4170    0.2638 C   0  0  0  0  0  0  0  0  0  0  0  0
   60.3376   -1.1650    0.1175 C   0  0  0  0  0  0  0  0  0  0  0  0
   59.6594    0.0476   -0.0254 C   0  0  0  0  0  0  0  0  0  0  0  0
   60.3367    1.2609   -0.1671 C   0  0  0  0  0  0  0  0  0  0  0  0
   59.6585    2.5123   -0.3147 C   0  0  0  0  0  0  0  0  0  0  0  0
   60.6201    3.4566   -0.4252 C   0  0  0  0  0  0  0  0  0  0  0  0
   61.8737    2.7712   -0.3437 C   0  0  0  0  0  0  0  0  0  0  0  0
   61.6891    1.4225   -0.1853 N   0  0  0  0  0  0  0  0  0  0  0  0
   63.0880    3.4171   -0.4191 C   0  0  0  0  0  0  0  0  0  0  0  0
   64.3028    2.7722   -0.3426 C   0  0  0  0  0  0  0  0  0  0  0  0
   65.5557    3.4588   -0.4234 C   0  0  0  0  0  0  0  0  0  0  0  0
   66.5182    2.5155   -0.3118 C   0  0  0  0  0  0  0  0  0  0  0  0
   65.8412    1.2635   -0.1646 C   0  0  0  0  0  0  0  0  0  0  0  0
   64.4886    1.4238   -0.1836 N   0  0  0  0  0  0  0  0  0  0  0  0
   66.5196    0.0511   -0.0207 C   0  0  0  0  0  0  0  0  0  0  0  0
   65.8421   -1.1619    0.1235 C   0  0  0  0  0  0  0  0  0  0  0  0
   66.5201   -2.4131    0.2736 C   0  0  0  0  0  0  0  0  0  0  0  0
   65.5584   -3.3572    0.3849 C   0  0  0  0  0  0  0  0  0  0  0  0
   64.3049   -2.6720    0.3019 C   0  0  0  0  0  0  0  0  0  0  0  0
   64.4897   -1.3235    0.1416 N   0  0  0  0  0  0  0  0  0  0  0  0
   63.0907   -3.3180    0.3763 C   0  0  0  0  0  0  0  0  0  0  0  0
   61.8758   -2.6735    0.2977 C   0  0  0  0  0  0  0  0  0  0  0  0
   61.6902   -1.3251    0.1383 N   0  0  0  0  0  0  0  0  0  0  0  0
   60.5168   -4.4203    0.5010 H   0  0  0  0  0  0  0  0  0  0  0  0
   58.5942   -2.5322    0.2756 H   0  0  0  0  0  0  0  0  0  0  0  0
   58.5922    2.6263   -0.3286 H   0  0  0  0  0  0  0  0  0  0  0  0
   60.5131    4.5165   -0.5499 H   0  0  0  0  0  0  0  0  0  0  0  0
   63.0875    4.4892   -0.5455 H   0  0  0  0  0  0  0  0  0  0  0  0
   65.6616    4.5188   -0.5485 H   0  0  0  0  0  0  0  0  0  0  0  0
   67.5844    2.6306   -0.3253 H   0  0  0  0  0  0  0  0  0  0  0  0
   67.5864   -2.5272    0.2884 H   0  0  0  0  0  0  0  0  0  0  0  0
   65.6653   -4.4170    0.5112 H   0  0  0  0  0  0  0  0  0  0  0  0
   63.0912   -4.3901    0.5033 H   0  0  0  0  0  0  0  0  0  0  0  0
   76.5241    0.0379   -0.0204 Co  0  0  0  0  0  0  0  0  0  0  0  0
   74.0570   -3.3710    0.3817 C   0  0  0  0  0  0  0  0  0  0  0  0
   73.0948   -2.4274    0.2702 C   0  0  0  0  0  0  0  0  0  0  0  0
   73.7719   -1.1756    0.1228 C   0  0  0  0  0  0  0  0  0  0  0  0
   73.0937    0.0371   -0.0197 C   0  0  0  0  0  0  0  0  0  0  0  0
   73.7714    1.2501   -0.1625 C   0  0  0  0  0  0  0  0  0  0  0  0
   73.0937    2.5018   -0.3096 C   0  0  0  0  0  0  0  0  0  0  0  0
   74.0556    3.4457   -0.4210 C   0  0  0  0  0  0  0  0  0  0  0  0
   75.3089    2.7599   -0.3408 C   0  0  0  0  0  0  0  0  0  0  0  0
   75.1239    1.4112   -0.1819 N   0  0  0  0  0  0  0  0  0  0  0  0
   76.5233    3.4055   -0.4174 C   0  0  0  0  0  0  0  0  0  0  0  0
   77.7380    2.7604   -0.3422 C   0  0  0  0  0  0  0  0  0  0  0  0
   78.9911    3.4465   -0.4240 C   0  0  0  0  0  0  0  0  0  0  0  0
   79.9534    2.5028   -0.3136 C   0  0  0  0  0  0  0  0  0  0  0  0
   79.2761    1.2511   -0.1654 C   0  0  0  0  0  0  0  0  0  0  0  0
   77.9235    1.4118   -0.1833 N   0  0  0  0  0  0  0  0  0  0  0  0
   79.9541    0.0385   -0.0224 C   0  0  0  0  0  0  0  0  0  0  0  0
   79.2765   -1.1744    0.1222 C   0  0  0  0  0  0  0  0  0  0  0  0
   79.9544   -2.4257    0.2709 C   0  0  0  0  0  0  0  0  0  0  0  0
   78.9926   -3.3696    0.3833 C   0  0  0  0  0  0  0  0  0  0  0  0
   77.7392   -2.6840    0.3019 C   0  0  0  0  0  0  0  0  0  0  0  0
   77.9241   -1.3355    0.1417 N   0  0  0  0  0  0  0  0  0  0  0  0
   76.5248   -3.3296    0.3781 C   0  0  0  0  0  0  0  0  0  0  0  0
   75.3101   -2.6846    0.3012 C   0  0  0  0  0  0  0  0  0  0  0  0
   75.1245   -1.3361    0.1420 N   0  0  0  0  0  0  0  0  0  0  0  0
   73.9510   -4.4310    0.5067 H   0  0  0  0  0  0  0  0  0  0  0  0
   72.0285   -2.5424    0.2834 H   0  0  0  0  0  0  0  0  0  0  0  0
   72.0274    2.6163   -0.3227 H   0  0  0  0  0  0  0  0  0  0  0  0
   73.9490    4.5057   -0.5458 H   0  0  0  0  0  0  0  0  0  0  0  0
   76.5230    4.4776   -0.5436 H   0  0  0  0  0  0  0  0  0  0  0  0
   79.0973    4.5065   -0.5490 H   0  0  0  0  0  0  0  0  0  0  0  0
   81.0196    2.6175   -0.3280 H   0  0  0  0  0  0  0  0  0  0  0  0
   81.0207   -2.5401    0.2844 H   0  0  0  0  0  0  0  0  0  0  0  0
   79.0994   -4.4294    0.5094 H   0  0  0  0  0  0  0  0  0  0  0  0
   76.5251   -4.4016    0.5050 H   0  0  0  0  0  0  0  0  0  0  0  0
   89.9566    0.0200   -0.0293 Co  0  0  0  0  0  0  0  0  0  0  0  0
   87.4854   -3.3881    0.3511 C   0  0  0  0  0  0  0  0  0  0  0  0
   86.5247   -2.4415    0.2538 C   0  0  0  0  0  0  0  0  0  0  0  0
   87.2038   -1.1903    0.1093 C   0  0  0  0  0  0  0  0  0  0  0  0
   86.5277    0.0241   -0.0277 C   0  0  0  0  0  0  0  0  0  0  0  0
   87.2066    1.2371   -0.1629 C   0  0  0  0  0  0  0  0  0  0  0  0
   86.5302    2.4904   -0.3022 C   0  0  0  0  0  0  0  0  0  0  0  0
   87.4931    3.4354   -0.3947 C   0  0  0  0  0  0  0  0  0  0  0  0
   88.7456    2.7485   -0.3116 C   0  0  0  0  0  0  0  0  0  0  0  0
   88.5593    1.3979   -0.1719 N   0  0  0  0  0  0  0  0  0  0  0  0
   89.9606    3.3955   -0.3629 C   0  0  0  0  0  0  0  0  0  0  0  0
   91.1742    2.7482   -0.2880 C   0  0  0  0  0  0  0  0  0  0  0  0
   92.4286    3.4348   -0.3437 C   0  0  0  0  0  0  0  0  0  0  0  0
   93.3891    2.4872   -0.2533 C   0  0  0  0  0  0  0  0  0  0  0  0
   92.7094    1.2327   -0.1432 C   0  0  0  0  0  0  0  0  0  0  0  0
   91.3571    1.3959   -0.1621 N   0  0  0  0  0  0  0  0  0  0  0  0
   93.3849    0.0149   -0.0406 C   0  0  0  0  0  0  0  0  0  0  0  0
   92.7065   -1.2007    0.0683 C   0  0  0  0  0  0  0  0  0  0  0  0
   93.3833   -2.4567    0.1793 C   0  0  0  0  0  0  0  0  0  0  0  0
   92.4207   -3.4008    0.2819 C   0  0  0  0  0  0  0  0  0  0  0  0
   91.1680   -2.7108    0.2316 C   0  0  0  0  0  0  0  0  0  0  0  0
   91.3539   -1.3597    0.0977 N   0  0  0  0  0  0  0  0  0  0  0  0
   89.9530   -3.3542    0.3159 C   0  0  0  0  0  0  0  0  0  0  0  0
   88.7395   -2.7044    0.2646 C   0  0  0  0  0  0  0  0  0  0  0  0
   88.5562   -1.3541    0.1190 N   0  0  0  0  0  0  0  0  0  0  0  0
   87.3777   -4.4487    0.4692 H   0  0  0  0  0  0  0  0  0  0  0  0
   85.4583   -2.5540    0.2744 H   0  0  0  0  0  0  0  0  0  0  0  0
   85.4641    2.6053   -0.3226 H   0  0  0  0  0  0  0  0  0  0  0  0
   87.3877    4.4967   -0.5080 H   0  0  0  0  0  0  0  0  0  0  0  0
   89.9617    4.4698   -0.4685 H   0  0  0  0  0  0  0  0  0  0  0  0
   92.5368    4.4975   -0.4402 H   0  0  0  0  0  0  0  0  0  0  0  0
   94.4556    2.6008   -0.2597 H   0  0  0  0  0  0  0  0  0  0  0  0
   94.4494   -2.5734    0.1783 H   0  0  0  0  0  0  0  0  0  0  0  0
   92.5265   -4.4634    0.3831 H   0  0  0  0  0  0  0  0  0  0  0  0
   89.9517   -4.4280    0.4271 H   0  0  0  0  0  0  0  0  0  0  0  0
  2  3  2  0  0  0  0
  3  4  1  0  0  0  0
  4  5  4  0  0  0  0
  5  6  4  0  0  0  0
  6  7  1  0  0  0  0
  7  8  2  0  0  0  0
  8  9  1  0  0  0  0
  1 10  1  0  0  0  0
  6 10  4  0  0  0  0
  9 10  4  0  0  0  0
  9 11  4  0  0  0  0
 11 12  4  0  0  0  0
 12 13  1  0  0  0  0
 13 14  2  0  0  0  0
 14 15  1  0  0  0  0
  1 16  1  0  0  0  0
 12 16  4  0  0  0  0
 15 16  4  0  0  0  0
 15 17  4  0  0  0  0
 17 18  4  0  0  0  0
 18 19  1  0  0  0  0
 19 20  2  0  0  0  0
 20 21  1  0  0  0  0
  1 22  1  0  0  0  0
 18 22  4  0  0  0  0
 21 22  4  0  0  0  0
 21 23  4  0  0  0  0
  2 24  1  0  0  0  0
 23 24  4  0  0  0  0
  1 25  1  0  0  0  0
  4 25  4  0  0  0  0
 24 25  4  0  0  0  0
  2 26  1  0  0  0  0
  3 27  1  0  0  0  0
  7 28  1  0  0  0  0
  8 29  1  0  0  0  0
 11 30  1  0  0  0  0
 13 31  1  0  0  0  0
 14 32  1  0  0  0  0
 17 33  1  0  0  0  0
 19 34  1  0  0  0  0
 20 35  1  0  0  0  0
 23 36  1  0  0  0  0
 38 39  2  0  0  0  0
 39 40  1  0  0  0  0
 40 41  4  0  0  0  0
 41 42  4  0  0  0  0
 42 43  1  0  0  0  0
 43 44  2  0  0  0  0
 44 45  1  0  0  0  0
 37 46  1  0  0  0  0
 42 46  4  0  0  0  0
 45 46  4  0  0  0  0
 45 47  4  0  0  0  0
 47 48  4  0  0  0  0
 48 49  1  0  0  0  0
 49 50  2  0  0  0  0
 50 51  1  0  0  0  0
 37 52  1  0  0  0  0
 48 52  4  0  0  0  0
 51 52  4  0  0  0  0
 51 53  4  0  0  0  0
 53 54  4  0  0  0  0
 54 55  1  0  0  0  0
 55 56  2  0  0  0  0
 56 57  1  0  0  0  0
 37 58  1  0  0  0  0
 54 58  4  0  0  0  0
 57 58  4  0  0  0  0
 57 59  4  0  0  0  0
 38 60  1  0  0  0  0
 59 60  4  0  0  0  0
 37 61  1  0  0  0  0
 40 61  4  0  0  0  0
 60 61  4  0  0  0  0
 38 62  1  0  0  0  0
 39 63  1  0  0  0  0
 43 64  1  0  0  0  0
 44 65  1  0  0  0  0
 47 66  1  0  0  0  0
 49 67  1  0  0  0  0
 50 68  1  0  0  0  0
 53 69  1  0  0  0  0
 55 70  1  0  0  0  0
 56 71  1  0  0  0  0
 59 72  1  0  0  0  0
  5 73  1  0  0  0  0
 73 74  3  0  0  0  0
 74 75  4  0  0  0  0
 75 76  3  0  0  0  0
 77 78  3  0  0  0  0
 78 79  4  0  0  0  0
 79 80  3  0  0  0  0
 81 82  3  0  0  0  0
 82 83  4  0  0  0  0
 83 84  3  0  0  0  0
 85 86  3  0  0  0  0
 86 87  4  0  0  0  0
 87 88  3  0  0  0  0
 89 90  3  0  0  0  0
 90 91  4  0  0  0  0
 41 92  1  0  0  0  0
 91 92  3  0  0  0  0
 94 95  2  0  0  0  0
 95 96  1  0  0  0  0
 76 97  1  0  0  0  0
 96 97  4  0  0  0  0
 97 98  4  0  0  0  0
 98 99  1  0  0  0  0
 99100  2  0  0  0  0
100101  1  0  0  0  0
 93102  1  0  0  0  0
 98102  4  0  0  0  0
101102  4  0  0  0  0
101103  4  0  0  0  0
103104  4  0  0  0  0
104105  1  0  0  0  0
105106  2  0  0  0  0
106107  1  0  0  0  0
 93108  1  0  0  0  0
104108  4  0  0  0  0
107108  4  0  0  0  0
 77109  1  0  0  0  0
107109  4  0  0  0  0
109110  4  0  0  0  0
110111  1  0  0  0  0
111112  2  0  0  0  0
112113  1  0  0  0  0
 93114  1  0  0  0  0
110114  4  0  0  0  0
113114  4  0  0  0  0
113115  4  0  0  0  0
 94116  1  0  0  0  0
115116  4  0  0  0  0
 93117  1  0  0  0  0
 96117  4  0  0  0  0
116117  4  0  0  0  0
 94118  1  0  0  0  0
 95119  1  0  0  0  0
 99120  1  0  0  0  0
100121  1  0  0  0  0
103122  1  0  0  0  0
105123  1  0  0  0  0
106124  1  0  0  0  0
111125  1  0  0  0  0
112126  1  0  0  0  0
115127  1  0  0  0  0
129130  2  0  0  0  0
130131  1  0  0  0  0
 80132  1  0  0  0  0
131132  4  0  0  0  0
132133  4  0  0  0  0
133134  1  0  0  0  0
134135  2  0  0  0  0
135136  1  0  0  0  0
128137  1  0  0  0  0
133137  4  0  0  0  0
136137  4  0  0  0  0
136138  4  0  0  0  0
138139  4  0  0  0  0
139140  1  0  0  0  0
140141  2  0  0  0  0
141142  1  0  0  0  0
128143  1  0  0  0  0
139143  4  0  0  0  0
142143  4  0  0  0  0
 81144  1  0  0  0  0
142144  4  0  0  0  0
144145  4  0  0  0  0
145146  1  0  0  0  0
146147  2  0  0  0  0
147148  1  0  0  0  0
128149  1  0  0  0  0
145149  4  0  0  0  0
148149  4  0  0  0  0
148150  4  0  0  0  0
129151  1  0  0  0  0
150151  4  0  0  0  0
128152  1  0  0  0  0
131152  4  0  0  0  0
151152  4  0  0  0  0
129153  1  0  0  0  0
130154  1  0  0  0  0
134155  1  0  0  0  0
135156  1  0  0  0  0
138157  1  0  0  0  0
140158  1  0  0  0  0
141159  1  0  0  0  0
146160  1  0  0  0  0
147161  1  0  0  0  0
150162  1  0  0  0  0
164165  2  0  0  0  0
165166  1  0  0  0  0
 84167  1  0  0  0  0
166167  4  0  0  0  0
167168  4  0  0  0  0
168169  1  0  0  0  0
169170  2  0  0  0  0
170171  1  0  0  0  0
163172  1  0  0  0  0
168172  4  0  0  0  0
171172  4  0  0  0  0
171173  4  0  0  0  0
173174  4  0  0  0  0
174175  1  0  0  0  0
175176  2  0  0  0  0
176177  1  0  0  0  0
163178  1  0  0  0  0
174178  4  0  0  0  0
177178  4  0  0  0  0
 85179  1  0  0  0  0
177179  4  0  0  0  0
179180  4  0  0  0  0
180181  1  0  0  0  0
181182  2  0  0  0  0
182183  1  0  0  0  0
163184  1  0  0  0  0
180184  4  0  0  0  0
183184  4  0  0  0  0
183185  4  0  0  0  0
164186  1  0  0  0  0
185186  4  0  0  0  0
163187  1  0  0  0  0
166187  4  0  0  0  0
186187  4  0  0  0  0
164188  1  0  0  0  0
165189  1  0  0  0  0
169190  1  0  0  0  0
170191  1  0  0  0  0
173192  1  0  0  0  0
175193  1  0  0  0  0
176194  1  0  0  0  0
181195  1  0  0  0  0
182196  1  0  0  0  0
185197  1  0  0  0  0
199200  2  0  0  0  0
200201  1  0  0  0  0
 88202  1  0  0  0  0
201202  4  0  0  0  0
202203  4  0  0  0  0
203204  1  0  0  0  0
204205  2  0  0  0  0
205206  1  0  0  0  0
198207  1  0  0  0  0
203207  4  0  0  0  0
206207  4  0  0  0  0
206208  4  0  0  0  0
208209  4  0  0  0  0
209210  1  0  0  0  0
210211  2  0  0  0  0
211212  1  0  0  0  0
198213  1  0  0  0  0
209213  4  0  0  0  0
212213  4  0  0  0  0
 89214  1  0  0  0  0
212214  4  0  0  0  0
214215  4  0  0  0  0
215216  1  0  0  0  0
216217  2  0  0  0  0
217218  1  0  0  0  0
198219  1  0  0  0  0
215219  4  0  0  0  0
218219  4  0  0  0  0
218220  4  0  0  0  0
199221  1  0  0  0  0
220221  4  0  0  0  0
198222  1  0  0  0  0
201222  4  0  0  0  0
221222  4  0  0  0  0
199223  1  0  0  0  0
200224  1  0  0  0  0
204225  1  0  0  0  0
205226  1  0  0  0  0
208227  1  0  0  0  0
210228  1  0  0  0  0
211229  1  0  0  0  0
216230  1  0  0  0  0
217231  1  0  0  0  0
220232  1  0  0  0  0
M  END
