115

Zn 14.475003 0.000111 -0.007347
C 17.011039 -3.432322 0.045347
C 17.963538 -2.468693 0.046468
C 17.273532 -1.210368 0.026197
C 17.911484 0.040983 0.014210
C 17.244398 1.276887 -0.001678
C 17.904389 2.551255 -0.009010
C 16.929308 3.492036 -0.018741
C 15.677067 2.790107 -0.017835
N 15.900681 1.445809 -0.007927
C 14.435183 3.403069 -0.024684
C 13.208754 2.759605 -0.025738
C 11.934791 3.426406 -0.033193
C 10.988742 2.458653 -0.035571
C 11.683975 1.199590 -0.029580
N 13.025672 1.413130 -0.022531
C 11.066541 -0.040618 -0.033536
C 11.713234 -1.265853 -0.028112
C 11.048151 -2.541134 -0.033981
C 12.016880 -3.486115 -0.022095
C 13.274533 -2.789117 -0.008618
N 13.059537 -1.447368 -0.014142
C 14.515851 -3.403026 0.010903
C 15.742657 -2.760493 0.024107
N 15.934288 -1.411236 0.014993
H 17.140294 -4.497400 0.057171
H 19.030449 -2.581150 0.059478
H 18.968432 2.688781 -0.005982
H 17.033178 4.559989 -0.025809
H 14.423172 4.484197 -0.030168
H 11.801681 4.491314 -0.036409
H 9.921098 2.567537 -0.041044
H 9.985616 -0.053455 -0.041759
H 9.983459 -2.675453 -0.045480
H 11.909200 -4.553927 -0.022129
H 14.529740 -4.484127 0.016314
Zn 41.376328 0.031098 -0.005519
C 38.851765 3.409272 0.651743
C 37.895873 2.464834 0.478269
C 38.581580 1.227275 0.236505
C 37.939696 -0.001109 0.008826
C 38.602609 -1.217844 -0.220456
C 37.938189 -2.468503 -0.453036
C 38.909950 -3.395475 -0.632618
C 40.164634 -2.708709 -0.510163
N 39.945756 -1.387095 -0.259879
C 41.404323 -3.314017 -0.631656
C 42.632948 -2.684328 -0.521459
C 43.904582 -3.342665 -0.652707
C 44.853968 -2.393489 -0.481578
C 44.163117 -1.154227 -0.245940
N 42.820692 -1.361176 -0.275529
C 44.784811 0.063769 -0.023974
C 44.142346 1.269738 0.204629
C 44.811872 2.522273 0.431670
C 43.846411 3.453190 0.612898
C 42.586301 2.770316 0.496942
N 42.796634 1.450860 0.249292
C 41.347053 3.375951 0.622111
C 40.117908 2.746810 0.514641
N 39.921598 1.421731 0.264024
H 38.726272 4.455499 0.853768
H 36.829341 2.577173 0.509723
H 36.873752 -2.600957 -0.473121
H 38.802299 -4.444661 -0.829974
H 41.412529 -4.376562 -0.831487
H 44.033957 -4.389753 -0.849233
H 45.921217 -2.502912 -0.508959
H 45.865780 0.074116 -0.029782
H 45.877058 2.652271 0.446814
H 43.957848 4.502836 0.806824
H 41.336961 4.438467 0.822025
C 19.310096 0.055364 0.016366
C 20.528368 0.061641 0.012280
C 21.870414 0.063717 0.007122
C 23.088802 0.060347 0.000097
C 32.762108 -0.014746 -0.010021
C 33.980395 -0.017529 -0.003502
C 35.322600 -0.015144 0.003808
C 36.540793 -0.012280 0.007968
Zn 27.925347 0.021732 -0.012996
C 25.404101 -3.397430 0.382271
C 24.447035 -2.443624 0.278096
C 25.131093 -1.190883 0.132967
C 24.486876 0.049931 -0.004633
C 25.150478 1.279729 -0.147319
C 24.486145 2.543302 -0.291408
C 25.458163 3.481279 -0.400702
C 26.711889 2.787840 -0.323157
N 26.493425 1.451178 -0.170048
C 27.951960 3.399420 -0.392753
C 29.182199 2.768457 -0.320915
C 30.446755 3.442244 -0.396173
C 31.403822 2.488858 -0.288541
C 30.719659 1.235501 -0.148179
N 29.379523 1.428277 -0.170287
C 31.363779 -0.005664 -0.014169
C 30.700310 -1.236706 0.117112
C 31.364606 -2.501068 0.254289
C 30.392599 -3.439277 0.361605
C 29.138855 -2.745201 0.289581
N 29.357314 -1.408135 0.140121
C 27.898829 -3.356167 0.364734
C 26.668606 -2.724440 0.299948
N 26.471181 -1.384290 0.149048
H 25.279836 -4.456265 0.503409
H 23.380602 -2.559420 0.296230
H 23.421674 2.676299 -0.305391
H 25.350744 4.541864 -0.522314
H 27.960520 4.473809 -0.514361
H 30.571045 4.501258 -0.515538
H 32.470267 2.605172 -0.302430
H 32.429101 -2.634386 0.265730
H 30.500037 -4.500424 0.478983
H 27.890319 -4.430585 0.486145
