114

C 20.799781 3.509245 0.788751
C 21.689759 2.568985 0.590556
C 21.028257 1.308911 0.289749
C 21.386696 0.003248 0.001068
C 20.561517 -1.127823 -0.084149
C 21.017083 -2.336548 0.497158
C 20.044388 -3.269094 0.297003
C 19.013294 -2.601393 -0.405984
N 19.350019 -1.320533 -0.622898
C 17.855334 -3.327509 -0.737701
C 16.537233 -2.884813 -0.624166
C 15.224886 -3.486947 -0.721146
C 14.303259 -2.540299 -0.515061
C 15.000145 -1.294469 -0.278330
N 16.321218 -1.574221 -0.358015
C 14.600903 0.007528 -0.010327
C 15.433515 1.144205 0.065582
C 14.999371 2.346194 -0.544558
C 15.994885 3.262583 -0.352603
C 17.009036 2.589339 0.371329
N 16.643839 1.321517 0.610153
C 18.178677 3.296296 0.692828
C 19.493930 2.892771 0.622812
N 19.683553 1.581667 0.326410
H 20.967045 4.537789 1.027341
H 22.760018 2.692323 0.639574
H 21.977604 -2.522250 1.015735
H 20.081270 -4.325704 0.622330
H 18.746734 -0.553123 -1.170418
H 17.943725 -4.362936 -1.116048
H 15.026211 -4.547648 -0.929890
H 13.233849 -2.732233 -0.534294
H 13.525960 0.096798 0.127418
H 14.045717 2.537752 -1.073356
H 15.980463 4.312811 -0.699044
H 17.237163 0.564074 1.182149
H 18.110169 4.353701 1.049544
C 37.875092 -3.494378 0.825122
C 36.985114 -2.556228 0.617172
C 37.646615 -1.299345 0.303294
C 37.288177 0.003248 0.001068
C 38.113355 1.133374 -0.095891
C 37.657790 2.348071 0.472831
C 38.630484 3.278488 0.263001
C 39.661578 2.603522 -0.433014
N 39.324853 1.320479 -0.636613
C 40.819539 3.326153 -0.772254
C 42.137640 2.884660 -0.654128
C 43.449986 3.485755 -0.757355
C 44.371614 2.541298 -0.541450
C 43.674728 1.297994 -0.291792
N 42.353655 1.576903 -0.374379
C 44.073970 -0.001150 -0.010282
C 43.241358 -1.136976 0.077428
C 43.675501 -2.345237 -0.520196
C 42.679988 -3.259583 -0.318733
C 41.665837 -2.578857 0.398167
N 42.031034 -1.308623 0.623811
C 40.496196 -3.282437 0.726992
C 39.180942 -2.879661 0.652789
N 38.991320 -1.571706 0.342786
H 37.707827 -4.520388 1.074381
H 35.914855 -2.679049 0.667468
H 36.697269 2.539149 0.989451
H 38.593603 4.338420 0.577337
H 39.928138 0.547423 -1.176133
H 40.731148 4.357595 -1.161334
H 43.648661 4.544231 -0.977105
H 45.441024 2.733022 -0.562675
H 45.148913 -0.088984 0.128383
H 44.629155 -2.542277 -1.046975
H 42.694409 -4.313353 -0.654248
H 41.437709 -0.545280 1.187910
H 40.564703 -4.336080 1.094670
C 23.614140 0.003248 0.001068
C 24.830345 0.003248 0.001068
C 33.844528 0.003248 0.001068
C 35.060733 0.003248 0.001068
C 26.545493 -3.596311 -0.000422
C 25.670943 -2.601407 -0.010724
C 26.342407 -1.322624 0.002465
C 25.945376 -0.007038 -0.002313
C 26.756568 1.137285 -0.156440
C 26.277542 2.189801 -0.968505
C 27.264628 3.132554 -0.959974
C 28.311899 2.630759 -0.147171
N 27.973046 1.424392 0.325575
C 29.472276 3.408742 0.007179
C 30.793265 2.950869 -0.022214
C 32.105835 3.579002 -0.083342
C 33.019948 2.623938 -0.085925
C 32.346401 1.337064 -0.026736
N 31.034343 1.625663 0.008054
C 32.748684 -0.007038 -0.002313
C 31.916530 -1.120827 0.179968
C 32.356489 -2.152485 1.043279
C 31.358306 -3.075825 1.047900
C 30.335391 -2.595887 0.194470
N 30.702568 -1.414640 -0.316038
C 29.178481 -3.371295 0.037402
C 27.857706 -2.951817 0.020716
N 27.681315 -1.613613 0.021617
H 26.376974 -4.658479 -0.005825
H 24.583115 -2.787443 -0.027751
H 25.313465 2.265173 -1.502821
H 27.226481 4.103669 -1.492417
H 28.580724 0.787292 1.014204
H 29.417177 4.495004 0.151294
H 32.324262 4.646995 -0.121672
H 34.096262 2.769982 -0.125553
H 33.310498 -2.216896 1.600827
H 31.383725 -4.021142 1.623219
H 30.115492 -0.795184 -1.039688
H 29.239200 -4.483035 -0.076727
