374

C 56.039457 3.509468 0.788773
C 56.929435 2.569209 0.590577
C 56.267933 1.309134 0.289770
C 56.626372 0.003472 0.001089
C 55.801193 -1.127600 -0.084127
C 56.256759 -2.336324 0.497180
C 55.284064 -3.268871 0.297025
C 54.252971 -2.601170 -0.405963
N 54.589696 -1.320310 -0.622877
C 53.095010 -3.327285 -0.737680
C 51.776909 -2.884589 -0.624145
C 50.464563 -3.486724 -0.721124
C 49.542935 -2.540076 -0.515039
C 50.239821 -1.294246 -0.278308
N 51.560894 -1.573998 -0.357994
C 49.840579 0.007752 -0.010305
C 50.673191 1.144428 0.065603
C 50.239048 2.346417 -0.544537
C 51.234561 3.262806 -0.352581
C 52.248712 2.589563 0.371350
N 51.883515 1.321741 0.610174
C 53.418353 3.296519 0.692849
C 54.733606 2.892994 0.622834
N 54.923229 1.581891 0.326432
H 56.206722 4.538012 1.027362
H 57.999694 2.692546 0.639596
H 57.217280 -2.522027 1.015756
H 55.320946 -4.325480 0.622352
H 53.986411 -0.552900 -1.170396
H 53.183401 -4.362712 -1.116027
H 50.265887 -4.547424 -0.929869
H 48.473525 -2.732010 -0.534273
H 48.765636 0.097021 0.127439
H 49.285393 2.537975 -1.073335
H 51.220139 4.313035 -0.699023
H 52.476839 0.564297 1.182170
H 53.349845 4.353924 1.049565
C 178.675155 -3.494155 0.825143
C 177.785177 -2.556004 0.617193
C 178.446678 -1.299122 0.303315
C 178.088240 0.003472 0.001089
C 178.913418 1.133598 -0.095870
C 178.457853 2.348294 0.472852
C 179.430547 3.278711 0.263023
C 180.461641 2.603745 -0.432992
N 180.124916 1.320702 -0.636592
C 181.619602 3.326377 -0.772233
C 182.937703 2.884884 -0.654106
C 184.250049 3.485978 -0.757334
C 185.171677 2.541522 -0.541428
C 184.474791 1.298217 -0.291771
N 183.153718 1.577127 -0.374358
C 184.874033 -0.000926 -0.010260
C 184.041421 -1.136753 0.077450
C 184.475564 -2.345014 -0.520174
C 183.480051 -3.259360 -0.318711
C 182.465900 -2.578634 0.398189
N 182.831097 -1.308400 0.623832
C 181.296259 -3.282213 0.727013
C 179.981005 -2.879438 0.652810
N 179.791383 -1.571483 0.342807
H 178.507890 -4.520165 1.074402
H 176.714918 -2.678826 0.667490
H 177.497332 2.539372 0.989472
H 179.393666 4.338643 0.577358
H 180.728201 0.547647 -1.176111
H 181.531211 4.357818 -1.161313
H 184.448724 4.544454 -0.977084
H 186.241087 2.733246 -0.562654
H 185.948976 -0.088760 0.128404
H 185.429218 -2.542053 -1.046954
H 183.494472 -4.313130 -0.654226
H 182.237772 -0.545057 1.187931
H 181.364766 -4.335856 1.094692
C 59.543128 0.015272 0.005373
C 60.758661 -0.010071 -0.005106
C 62.180178 -0.031495 -0.009282
C 63.388740 -0.033706 -0.009177
C 64.809815 -0.014746 -0.009804
C 66.020957 0.015272 0.005373
C 75.135855 0.015272 0.005373
C 76.351388 -0.010071 -0.005106
C 77.772905 -0.031495 -0.009282
C 78.981466 -0.033706 -0.009177
C 80.402542 -0.014746 -0.009804
C 81.613684 0.015272 0.005373
C 90.728581 0.015272 0.005373
C 91.944114 -0.010071 -0.005106
C 93.365631 -0.031495 -0.009282
C 94.574193 -0.033706 -0.009177
C 95.995268 -0.014746 -0.009804
C 97.206410 0.015272 0.005373
C 106.321308 0.015272 0.005373
C 107.536841 -0.010071 -0.005106
C 108.958358 -0.031495 -0.009282
C 110.166919 -0.033706 -0.009177
C 111.587995 -0.014746 -0.009804
C 112.799137 0.015272 0.005373
C 121.914034 0.015272 0.005373
C 123.129567 -0.010071 -0.005106
C 124.551084 -0.031495 -0.009282
C 125.759646 -0.033706 -0.009177
C 127.180721 -0.014746 -0.009804
C 128.391863 0.015272 0.005373
C 137.506761 0.015272 0.005373
C 138.722294 -0.010071 -0.005106
C 140.143811 -0.031495 -0.009282
C 141.352372 -0.033706 -0.009177
C 142.773448 -0.014746 -0.009804
C 143.984590 0.015272 0.005373
C 153.099488 0.015272 0.005373
C 154.315020 -0.010071 -0.005106
C 155.736537 -0.031495 -0.009282
C 156.945099 -0.033706 -0.009177
C 158.366174 -0.014746 -0.009804
C 159.577317 0.015272 0.005373
C 168.692214 0.015272 0.005373
C 169.907747 -0.010071 -0.005106
C 171.329264 -0.031495 -0.009282
C 172.537826 -0.033706 -0.009177
C 173.958901 -0.014746 -0.009804
C 175.170043 0.015272 0.005373
C 67.784491 -3.593202 0.000548
C 66.909941 -2.598297 -0.009754
C 67.581405 -1.319514 0.003435
C 67.184374 -0.003929 -0.001343
C 67.995566 1.140395 -0.155470
C 67.516540 2.192911 -0.967535
C 68.503625 3.135664 -0.959004
C 69.550897 2.633869 -0.146201
N 69.212044 1.427502 0.326545
C 70.711274 3.411852 0.008149
C 72.032263 2.953979 -0.021244
C 73.344833 3.582112 -0.082372
C 74.258945 2.627048 -0.084955
C 73.585399 1.340174 -0.025766
N 72.273340 1.628773 0.009024
C 73.987682 -0.003929 -0.001343
C 73.155528 -1.117718 0.180938
C 73.595486 -2.149375 1.044249
C 72.597304 -3.072715 1.048870
C 71.574389 -2.592777 0.195440
N 71.941566 -1.411530 -0.315068
C 70.417479 -3.368185 0.038372
C 69.096704 -2.948707 0.021686
N 68.920313 -1.610503 0.022587
H 67.615972 -4.655369 -0.004855
H 65.822113 -2.784333 -0.026781
H 66.552463 2.268283 -1.501851
H 68.465479 4.106779 -1.491446
H 69.819722 0.790402 1.015174
H 70.656174 4.498114 0.152264
H 73.563260 4.650104 -0.120702
H 75.335260 2.773092 -0.124582
H 74.549496 -2.213787 1.601797
H 72.622723 -4.018033 1.624189
H 71.354490 -0.792074 -1.038718
H 70.478197 -4.479925 -0.075757
C 83.377217 -3.593202 0.000548
C 82.502667 -2.598297 -0.009754
C 83.174131 -1.319514 0.003435
C 82.777100 -0.003929 -0.001343
C 83.588293 1.140395 -0.155470
C 83.109267 2.192911 -0.967535
C 84.096352 3.135664 -0.959004
C 85.143623 2.633869 -0.146201
N 84.804770 1.427502 0.326545
C 86.304001 3.411852 0.008149
C 87.624990 2.953979 -0.021244
C 88.937559 3.582112 -0.082372
C 89.851672 2.627048 -0.084955
C 89.178125 1.340174 -0.025766
N 87.866067 1.628773 0.009024
C 89.580409 -0.003929 -0.001343
C 88.748255 -1.117718 0.180938
C 89.188213 -2.149375 1.044249
C 88.190031 -3.072715 1.048870
C 87.167115 -2.592777 0.195440
N 87.534292 -1.411530 -0.315068
C 86.010206 -3.368185 0.038372
C 84.689431 -2.948707 0.021686
N 84.513040 -1.610503 0.022587
H 83.208698 -4.655369 -0.004855
H 81.414839 -2.784333 -0.026781
H 82.145189 2.268283 -1.501851
H 84.058205 4.106779 -1.491446
H 85.412449 0.790402 1.015174
H 86.248901 4.498114 0.152264
H 89.155986 4.650104 -0.120702
H 90.927987 2.773092 -0.124582
H 90.142223 -2.213787 1.601797
H 88.215449 -4.018033 1.624189
H 86.947216 -0.792074 -1.038718
H 86.070924 -4.479925 -0.075757
C 98.969944 -3.593202 0.000548
C 98.095394 -2.598297 -0.009754
C 98.766858 -1.319514 0.003435
C 98.369827 -0.003929 -0.001343
C 99.181019 1.140395 -0.155470
C 98.701993 2.192911 -0.967535
C 99.689079 3.135664 -0.959004
C 100.736350 2.633869 -0.146201
N 100.397497 1.427502 0.326545
C 101.896727 3.411852 0.008149
C 103.217716 2.953979 -0.021244
C 104.530286 3.582112 -0.082372
C 105.444399 2.627048 -0.084955
C 104.770852 1.340174 -0.025766
N 103.458794 1.628773 0.009024
C 105.173135 -0.003929 -0.001343
C 104.340981 -1.117718 0.180938
C 104.780940 -2.149375 1.044249
C 103.782757 -3.072715 1.048870
C 102.759842 -2.592777 0.195440
N 103.127019 -1.411530 -0.315068
C 101.602932 -3.368185 0.038372
C 100.282157 -2.948707 0.021686
N 100.105766 -1.610503 0.022587
H 98.801425 -4.655369 -0.004855
H 97.007566 -2.784333 -0.026781
H 97.737916 2.268283 -1.501851
H 99.650932 4.106779 -1.491446
H 101.005175 0.790402 1.015174
H 101.841628 4.498114 0.152264
H 104.748713 4.650104 -0.120702
H 106.520713 2.773092 -0.124582
H 105.734949 -2.213787 1.601797
H 103.808176 -4.018033 1.624189
H 102.539943 -0.792074 -1.038718
H 101.663651 -4.479925 -0.075757
C 114.562671 -3.593202 0.000548
C 113.688121 -2.598297 -0.009754
C 114.359584 -1.319514 0.003435
C 113.962553 -0.003929 -0.001343
C 114.773746 1.140395 -0.155470
C 114.294720 2.192911 -0.967535
C 115.281805 3.135664 -0.959004
C 116.329076 2.633869 -0.146201
N 115.990223 1.427502 0.326545
C 117.489454 3.411852 0.008149
C 118.810443 2.953979 -0.021244
C 120.123013 3.582112 -0.082372
C 121.037125 2.627048 -0.084955
C 120.363578 1.340174 -0.025766
N 119.051520 1.628773 0.009024
C 120.765862 -0.003929 -0.001343
C 119.933708 -1.117718 0.180938
C 120.373666 -2.149375 1.044249
C 119.375484 -3.072715 1.048870
C 118.352568 -2.592777 0.195440
N 118.719745 -1.411530 -0.315068
C 117.195659 -3.368185 0.038372
C 115.874884 -2.948707 0.021686
N 115.698493 -1.610503 0.022587
H 114.394151 -4.655369 -0.004855
H 112.600293 -2.784333 -0.026781
H 113.330642 2.268283 -1.501851
H 115.243658 4.106779 -1.491446
H 116.597902 0.790402 1.015174
H 117.434354 4.498114 0.152264
H 120.341439 4.650104 -0.120702
H 122.113440 2.773092 -0.124582
H 121.327676 -2.213787 1.601797
H 119.400903 -4.018033 1.624189
H 118.132669 -0.792074 -1.038718
H 117.256377 -4.479925 -0.075757
C 130.155397 -3.593202 0.000548
C 129.280847 -2.598297 -0.009754
C 129.952311 -1.319514 0.003435
C 129.555280 -0.003929 -0.001343
C 130.366472 1.140395 -0.155470
C 129.887447 2.192911 -0.967535
C 130.874532 3.135664 -0.959004
C 131.921803 2.633869 -0.146201
N 131.582950 1.427502 0.326545
C 133.082180 3.411852 0.008149
C 134.403169 2.953979 -0.021244
C 135.715739 3.582112 -0.082372
C 136.629852 2.627048 -0.084955
C 135.956305 1.340174 -0.025766
N 134.644247 1.628773 0.009024
C 136.358588 -0.003929 -0.001343
C 135.526434 -1.117718 0.180938
C 135.966393 -2.149375 1.044249
C 134.968211 -3.072715 1.048870
C 133.945295 -2.592777 0.195440
N 134.312472 -1.411530 -0.315068
C 132.788386 -3.368185 0.038372
C 131.467610 -2.948707 0.021686
N 131.291220 -1.610503 0.022587
H 129.986878 -4.655369 -0.004855
H 128.193019 -2.784333 -0.026781
H 128.923369 2.268283 -1.501851
H 130.836385 4.106779 -1.491446
H 132.190628 0.790402 1.015174
H 133.027081 4.498114 0.152264
H 135.934166 4.650104 -0.120702
H 137.706167 2.773092 -0.124582
H 136.920402 -2.213787 1.601797
H 134.993629 -4.018033 1.624189
H 133.725396 -0.792074 -1.038718
H 132.849104 -4.479925 -0.075757
C 145.748124 -3.593202 0.000548
C 144.873574 -2.598297 -0.009754
C 145.545037 -1.319514 0.003435
C 145.148007 -0.003929 -0.001343
C 145.959199 1.140395 -0.155470
C 145.480173 2.192911 -0.967535
C 146.467258 3.135664 -0.959004
C 147.514530 2.633869 -0.146201
N 147.175677 1.427502 0.326545
C 148.674907 3.411852 0.008149
C 149.995896 2.953979 -0.021244
C 151.308466 3.582112 -0.082372
C 152.222578 2.627048 -0.084955
C 151.549032 1.340174 -0.025766
N 150.236973 1.628773 0.009024
C 151.951315 -0.003929 -0.001343
C 151.119161 -1.117718 0.180938
C 151.559119 -2.149375 1.044249
C 150.560937 -3.072715 1.048870
C 149.538021 -2.592777 0.195440
N 149.905199 -1.411530 -0.315068
C 148.381112 -3.368185 0.038372
C 147.060337 -2.948707 0.021686
N 146.883946 -1.610503 0.022587
H 145.579604 -4.655369 -0.004855
H 143.785746 -2.784333 -0.026781
H 144.516095 2.268283 -1.501851
H 146.429112 4.106779 -1.491446
H 147.783355 0.790402 1.015174
H 148.619807 4.498114 0.152264
H 151.526893 4.650104 -0.120702
H 153.298893 2.773092 -0.124582
H 152.513129 -2.213787 1.601797
H 150.586356 -4.018033 1.624189
H 149.318122 -0.792074 -1.038718
H 148.441830 -4.479925 -0.075757
C 161.340850 -3.593202 0.000548
C 160.466300 -2.598297 -0.009754
C 161.137764 -1.319514 0.003435
C 160.740733 -0.003929 -0.001343
C 161.551925 1.140395 -0.155470
C 161.072900 2.192911 -0.967535
C 162.059985 3.135664 -0.959004
C 163.107256 2.633869 -0.146201
N 162.768403 1.427502 0.326545
C 164.267634 3.411852 0.008149
C 165.588623 2.953979 -0.021244
C 166.901192 3.582112 -0.082372
C 167.815305 2.627048 -0.084955
C 167.141758 1.340174 -0.025766
N 165.829700 1.628773 0.009024
C 167.544042 -0.003929 -0.001343
C 166.711888 -1.117718 0.180938
C 167.151846 -2.149375 1.044249
C 166.153664 -3.072715 1.048870
C 165.130748 -2.592777 0.195440
N 165.497925 -1.411530 -0.315068
C 163.973839 -3.368185 0.038372
C 162.653064 -2.948707 0.021686
N 162.476673 -1.610503 0.022587
H 161.172331 -4.655369 -0.004855
H 159.378472 -2.784333 -0.026781
H 160.108822 2.268283 -1.501851
H 162.021838 4.106779 -1.491446
H 163.376082 0.790402 1.015174
H 164.212534 4.498114 0.152264
H 167.119619 4.650104 -0.120702
H 168.891620 2.773092 -0.124582
H 168.105855 -2.213787 1.601797
H 166.179082 -4.018033 1.624189
H 164.910849 -0.792074 -1.038718
H 164.034557 -4.479925 -0.075757
