
  xtb     11212121203D
 xtb: 6.4.1 (bd6e46d)
271326  0     0  0            999 V2000
   43.4869    0.0077   -0.0104 Ni  0  0  0  0  0  0  0  0  0  0  0  0
   45.9904   -3.4017    0.0503 C   0  0  0  0  0  0  0  0  0  0  0  0
   46.9405   -2.4398    0.0441 C   0  0  0  0  0  0  0  0  0  0  0  0
   46.2490   -1.1860    0.0192 C   0  0  0  0  0  0  0  0  0  0  0  0
   46.9131    0.0440    0.0027 C   0  0  0  0  0  0  0  0  0  0  0  0
   46.2234    1.2598   -0.0086 C   0  0  0  0  0  0  0  0  0  0  0  0
   46.8883    2.5281   -0.0131 C   0  0  0  0  0  0  0  0  0  0  0  0
   45.9180    3.4697   -0.0066 C   0  0  0  0  0  0  0  0  0  0  0  0
   44.6685    2.7697   -0.0010 C   0  0  0  0  0  0  0  0  0  0  0  0
   44.8708    1.4152   -0.0040 N   0  0  0  0  0  0  0  0  0  0  0  0
   43.4469    3.4106    0.0066 C   0  0  0  0  0  0  0  0  0  0  0  0
   42.2408    2.7412   -0.0016 C   0  0  0  0  0  0  0  0  0  0  0  0
   40.9720    3.4108   -0.0049 C   0  0  0  0  0  0  0  0  0  0  0  0
   40.0271    2.4462   -0.0292 C   0  0  0  0  0  0  0  0  0  0  0  0
   40.7228    1.1911   -0.0380 C   0  0  0  0  0  0  0  0  0  0  0  0
   42.0744    1.3854   -0.0191 N   0  0  0  0  0  0  0  0  0  0  0  0
   40.0778   -0.0285   -0.0630 C   0  0  0  0  0  0  0  0  0  0  0  0
   40.7489   -1.2343   -0.0590 C   0  0  0  0  0  0  0  0  0  0  0  0
   40.0803   -2.5039   -0.0746 C   0  0  0  0  0  0  0  0  0  0  0  0
   41.0453   -3.4484   -0.0495 C   0  0  0  0  0  0  0  0  0  0  0  0
   42.2992   -2.7518   -0.0211 C   0  0  0  0  0  0  0  0  0  0  0  0
   42.1040   -1.3999   -0.0292 N   0  0  0  0  0  0  0  0  0  0  0  0
   43.5190   -3.3953    0.0111 C   0  0  0  0  0  0  0  0  0  0  0  0
   44.7264   -2.7285    0.0267 C   0  0  0  0  0  0  0  0  0  0  0  0
   44.9001   -1.3700    0.0108 N   0  0  0  0  0  0  0  0  0  0  0  0
   46.1109   -4.4674    0.0673 H   0  0  0  0  0  0  0  0  0  0  0  0
   48.0081   -2.5429    0.0554 H   0  0  0  0  0  0  0  0  0  0  0  0
   47.9535    2.6538   -0.0184 H   0  0  0  0  0  0  0  0  0  0  0  0
   46.0160    4.5379   -0.0062 H   0  0  0  0  0  0  0  0  0  0  0  0
   43.4356    4.4897    0.0149 H   0  0  0  0  0  0  0  0  0  0  0  0
   40.8492    4.4766    0.0082 H   0  0  0  0  0  0  0  0  0  0  0  0
   38.9591    2.5469   -0.0398 H   0  0  0  0  0  0  0  0  0  0  0  0
   38.9989   -0.0399   -0.0824 H   0  0  0  0  0  0  0  0  0  0  0  0
   39.0149   -2.6274   -0.0998 H   0  0  0  0  0  0  0  0  0  0  0  0
   40.9454   -4.5166   -0.0502 H   0  0  0  0  0  0  0  0  0  0  0  0
   43.5305   -4.4745    0.0205 H   0  0  0  0  0  0  0  0  0  0  0  0
  124.0420    0.0413   -0.0106 Ni  0  0  0  0  0  0  0  0  0  0  0  0
  121.5471    3.3966    0.6316 C   0  0  0  0  0  0  0  0  0  0  0  0
  120.5945    2.4544    0.4499 C   0  0  0  0  0  0  0  0  0  0  0  0
  121.2829    1.2210    0.2145 C   0  0  0  0  0  0  0  0  0  0  0  0
  120.6160    0.0125   -0.0062 C   0  0  0  0  0  0  0  0  0  0  0  0
  121.3024   -1.1866   -0.2174 C   0  0  0  0  0  0  0  0  0  0  0  0
  120.6341   -2.4345   -0.4338 C   0  0  0  0  0  0  0  0  0  0  0  0
  121.6020   -3.3647   -0.5958 C   0  0  0  0  0  0  0  0  0  0  0  0
  122.8534   -2.6776   -0.4796 C   0  0  0  0  0  0  0  0  0  0  0  0
  122.6546   -1.3427   -0.2471 N   0  0  0  0  0  0  0  0  0  0  0  0
  124.0732   -3.3108   -0.5980 C   0  0  0  0  0  0  0  0  0  0  0  0
  125.2809   -2.6517   -0.4991 C   0  0  0  0  0  0  0  0  0  0  0  0
  126.5478   -3.3111   -0.6351 C   0  0  0  0  0  0  0  0  0  0  0  0
  127.4951   -2.3596   -0.4891 C   0  0  0  0  0  0  0  0  0  0  0  0
  126.8027   -1.1234   -0.2618 C   0  0  0  0  0  0  0  0  0  0  0  0
  125.4508   -1.3156   -0.2708 N   0  0  0  0  0  0  0  0  0  0  0  0
  127.4511    0.0779   -0.0596 C   0  0  0  0  0  0  0  0  0  0  0  0
  126.7834    1.2632    0.1716 C   0  0  0  0  0  0  0  0  0  0  0  0
  127.4555    2.5111    0.3956 C   0  0  0  0  0  0  0  0  0  0  0  0
  126.4930    3.4379    0.5920 C   0  0  0  0  0  0  0  0  0  0  0  0
  125.2370    2.7529    0.4839 C   0  0  0  0  0  0  0  0  0  0  0  0
  125.4286    1.4250    0.2274 N   0  0  0  0  0  0  0  0  0  0  0  0
  124.0187    3.3854    0.6205 C   0  0  0  0  0  0  0  0  0  0  0  0
  122.8094    2.7322    0.5031 C   0  0  0  0  0  0  0  0  0  0  0  0
  122.6324    1.3983    0.2483 N   0  0  0  0  0  0  0  0  0  0  0  0
  121.4291    4.4436    0.8328 H   0  0  0  0  0  0  0  0  0  0  0  0
  119.5271    2.5584    0.4705 H   0  0  0  0  0  0  0  0  0  0  0  0
  119.5686   -2.5557   -0.4544 H   0  0  0  0  0  0  0  0  0  0  0  0
  121.5012   -4.4168   -0.7787 H   0  0  0  0  0  0  0  0  0  0  0  0
  124.0818   -4.3743   -0.7816 H   0  0  0  0  0  0  0  0  0  0  0  0
  126.6678   -4.3613   -0.8184 H   0  0  0  0  0  0  0  0  0  0  0  0
  128.5627   -2.4582   -0.5257 H   0  0  0  0  0  0  0  0  0  0  0  0
  128.5300    0.0901   -0.0784 H   0  0  0  0  0  0  0  0  0  0  0  0
  128.5213    2.6332    0.3984 H   0  0  0  0  0  0  0  0  0  0  0  0
  126.5958    4.4872    0.7906 H   0  0  0  0  0  0  0  0  0  0  0  0
  124.0100    4.4452    0.8243 H   0  0  0  0  0  0  0  0  0  0  0  0
   48.3103    0.0576    0.0018 C   0  0  0  0  0  0  0  0  0  0  0  0
   49.5277    0.0672   -0.0022 C   0  0  0  0  0  0  0  0  0  0  0  0
   50.8696    0.0728   -0.0036 C   0  0  0  0  0  0  0  0  0  0  0  0
   52.0872    0.0746   -0.0064 C   0  0  0  0  0  0  0  0  0  0  0  0
   61.7404    0.0516   -0.0160 C   0  0  0  0  0  0  0  0  0  0  0  0
   62.9581    0.0491   -0.0187 C   0  0  0  0  0  0  0  0  0  0  0  0
   64.2992    0.0486   -0.0160 C   0  0  0  0  0  0  0  0  0  0  0  0
   65.5169    0.0454   -0.0196 C   0  0  0  0  0  0  0  0  0  0  0  0
   75.1656    0.0418   -0.0160 C   0  0  0  0  0  0  0  0  0  0  0  0
   76.3832    0.0467   -0.0191 C   0  0  0  0  0  0  0  0  0  0  0  0
   77.7241    0.0457   -0.0199 C   0  0  0  0  0  0  0  0  0  0  0  0
   78.9416    0.0466   -0.0138 C   0  0  0  0  0  0  0  0  0  0  0  0
   88.5883    0.0438   -0.0221 C   0  0  0  0  0  0  0  0  0  0  0  0
   89.8059    0.0447   -0.0230 C   0  0  0  0  0  0  0  0  0  0  0  0
   91.1468    0.0456   -0.0223 C   0  0  0  0  0  0  0  0  0  0  0  0
   92.3643    0.0456   -0.0200 C   0  0  0  0  0  0  0  0  0  0  0  0
  102.0127    0.0464   -0.0228 C   0  0  0  0  0  0  0  0  0  0  0  0
  103.2303    0.0445   -0.0226 C   0  0  0  0  0  0  0  0  0  0  0  0
  104.5714    0.0415   -0.0221 C   0  0  0  0  0  0  0  0  0  0  0  0
  105.7890    0.0364   -0.0214 C   0  0  0  0  0  0  0  0  0  0  0  0
  115.4416   -0.0052   -0.0187 C   0  0  0  0  0  0  0  0  0  0  0  0
  116.6592   -0.0051   -0.0167 C   0  0  0  0  0  0  0  0  0  0  0  0
  118.0012   -0.0031   -0.0127 C   0  0  0  0  0  0  0  0  0  0  0  0
  119.2186    0.0027   -0.0095 C   0  0  0  0  0  0  0  0  0  0  0  0
   56.9144    0.0629   -0.0176 Ni  0  0  0  0  0  0  0  0  0  0  0  0
   54.4359   -3.3451    0.3682 C   0  0  0  0  0  0  0  0  0  0  0  0
   53.4777   -2.3969    0.2622 C   0  0  0  0  0  0  0  0  0  0  0  0
   54.1589   -1.1453    0.1225 C   0  0  0  0  0  0  0  0  0  0  0  0
   53.4839    0.0721   -0.0100 C   0  0  0  0  0  0  0  0  0  0  0  0
   54.1646    1.2856   -0.1473 C   0  0  0  0  0  0  0  0  0  0  0  0
   53.4894    2.5404   -0.2873 C   0  0  0  0  0  0  0  0  0  0  0  0
   54.4522    3.4831   -0.4016 C   0  0  0  0  0  0  0  0  0  0  0  0
   55.7065    2.7965   -0.3298 C   0  0  0  0  0  0  0  0  0  0  0  0
   55.5154    1.4493   -0.1732 N   0  0  0  0  0  0  0  0  0  0  0  0
   56.9226    3.4416   -0.4121 C   0  0  0  0  0  0  0  0  0  0  0  0
   58.1357    2.7899   -0.3405 C   0  0  0  0  0  0  0  0  0  0  0  0
   59.3935    3.4688   -0.4241 C   0  0  0  0  0  0  0  0  0  0  0  0
   60.3515    2.5210   -0.3123 C   0  0  0  0  0  0  0  0  0  0  0  0
   59.6699    1.2708   -0.1617 C   0  0  0  0  0  0  0  0  0  0  0  0
   58.3201    1.4421   -0.1806 N   0  0  0  0  0  0  0  0  0  0  0  0
   60.3444    0.0548   -0.0165 C   0  0  0  0  0  0  0  0  0  0  0  0
   59.6641   -1.1584    0.1261 C   0  0  0  0  0  0  0  0  0  0  0  0
   60.3397   -2.4121    0.2732 C   0  0  0  0  0  0  0  0  0  0  0  0
   59.3772   -3.3559    0.3805 C   0  0  0  0  0  0  0  0  0  0  0  0
   58.1227   -2.6707    0.2981 C   0  0  0  0  0  0  0  0  0  0  0  0
   58.3135   -1.3233    0.1426 N   0  0  0  0  0  0  0  0  0  0  0  0
   56.9065   -3.3166    0.3689 C   0  0  0  0  0  0  0  0  0  0  0  0
   55.6935   -2.6650    0.2926 C   0  0  0  0  0  0  0  0  0  0  0  0
   55.5089   -1.3164    0.1410 N   0  0  0  0  0  0  0  0  0  0  0  0
   54.3247   -4.4053    0.4870 H   0  0  0  0  0  0  0  0  0  0  0  0
   52.4110   -2.5081    0.2749 H   0  0  0  0  0  0  0  0  0  0  0  0
   52.4232    2.6572   -0.2947 H   0  0  0  0  0  0  0  0  0  0  0  0
   54.3460    4.5435   -0.5231 H   0  0  0  0  0  0  0  0  0  0  0  0
   56.9250    4.5135   -0.5383 H   0  0  0  0  0  0  0  0  0  0  0  0
   59.5051    4.5280   -0.5507 H   0  0  0  0  0  0  0  0  0  0  0  0
   61.4182    2.6316   -0.3272 H   0  0  0  0  0  0  0  0  0  0  0  0
   61.4059   -2.5278    0.2890 H   0  0  0  0  0  0  0  0  0  0  0  0
   59.4837   -4.4160    0.5037 H   0  0  0  0  0  0  0  0  0  0  0  0
   56.9037   -4.3890    0.4912 H   0  0  0  0  0  0  0  0  0  0  0  0
   70.3417    0.0432   -0.0216 Ni  0  0  0  0  0  0  0  0  0  0  0  0
   67.8699   -3.3676    0.3880 C   0  0  0  0  0  0  0  0  0  0  0  0
   66.9102   -2.4212    0.2782 C   0  0  0  0  0  0  0  0  0  0  0  0
   67.5896   -1.1701    0.1259 C   0  0  0  0  0  0  0  0  0  0  0  0
   66.9129    0.0445   -0.0211 C   0  0  0  0  0  0  0  0  0  0  0  0
   67.5905    1.2585   -0.1696 C   0  0  0  0  0  0  0  0  0  0  0  0
   66.9120    2.5099   -0.3232 C   0  0  0  0  0  0  0  0  0  0  0  0
   67.8723    3.4552   -0.4359 C   0  0  0  0  0  0  0  0  0  0  0  0
   69.1283    2.7735   -0.3497 C   0  0  0  0  0  0  0  0  0  0  0  0
   68.9407    1.4265   -0.1873 N   0  0  0  0  0  0  0  0  0  0  0  0
   70.3429    3.4225   -0.4217 C   0  0  0  0  0  0  0  0  0  0  0  0
   71.5571    2.7741   -0.3396 C   0  0  0  0  0  0  0  0  0  0  0  0
   72.8136    3.4562   -0.4141 C   0  0  0  0  0  0  0  0  0  0  0  0
   73.7732    2.5101   -0.3008 C   0  0  0  0  0  0  0  0  0  0  0  0
   73.0936    1.2580   -0.1583 C   0  0  0  0  0  0  0  0  0  0  0  0
   71.7436    1.4263   -0.1819 N   0  0  0  0  0  0  0  0  0  0  0  0
   73.7699    0.0423   -0.0186 C   0  0  0  0  0  0  0  0  0  0  0  0
   73.0925   -1.1730    0.1184 C   0  0  0  0  0  0  0  0  0  0  0  0
   73.7714   -2.4257    0.2596 C   0  0  0  0  0  0  0  0  0  0  0  0
   72.8113   -3.3716    0.3686 C   0  0  0  0  0  0  0  0  0  0  0  0
   71.5551   -2.6888    0.2934 C   0  0  0  0  0  0  0  0  0  0  0  0
   71.7425   -1.3408    0.1389 N   0  0  0  0  0  0  0  0  0  0  0  0
   70.3405   -3.3367    0.3734 C   0  0  0  0  0  0  0  0  0  0  0  0
   69.1264   -2.6867    0.3025 C   0  0  0  0  0  0  0  0  0  0  0  0
   68.9397   -1.3392    0.1429 N   0  0  0  0  0  0  0  0  0  0  0  0
   67.7603   -4.4270    0.5147 H   0  0  0  0  0  0  0  0  0  0  0  0
   65.8437   -2.5335    0.2949 H   0  0  0  0  0  0  0  0  0  0  0  0
   65.8456    2.6230   -0.3398 H   0  0  0  0  0  0  0  0  0  0  0  0
   67.7635    4.5144   -0.5652 H   0  0  0  0  0  0  0  0  0  0  0  0
   70.3432    4.4944   -0.5487 H   0  0  0  0  0  0  0  0  0  0  0  0
   72.9235    4.5161   -0.5367 H   0  0  0  0  0  0  0  0  0  0  0  0
   74.8397    2.6232   -0.3104 H   0  0  0  0  0  0  0  0  0  0  0  0
   74.8379   -2.5391    0.2706 H   0  0  0  0  0  0  0  0  0  0  0  0
   72.9204   -4.4319    0.4889 H   0  0  0  0  0  0  0  0  0  0  0  0
   70.3401   -4.4087    0.4986 H   0  0  0  0  0  0  0  0  0  0  0  0
   83.7650    0.0450   -0.0205 Ni  0  0  0  0  0  0  0  0  0  0  0  0
   81.2935   -3.3662    0.3880 C   0  0  0  0  0  0  0  0  0  0  0  0
   80.3341   -2.4194    0.2801 C   0  0  0  0  0  0  0  0  0  0  0  0
   81.0140   -1.1683    0.1296 C   0  0  0  0  0  0  0  0  0  0  0  0
   80.3374    0.0465   -0.0159 C   0  0  0  0  0  0  0  0  0  0  0  0
   81.0141    1.2608   -0.1646 C   0  0  0  0  0  0  0  0  0  0  0  0
   80.3350    2.5119   -0.3183 C   0  0  0  0  0  0  0  0  0  0  0  0
   81.2950    3.4573   -0.4337 C   0  0  0  0  0  0  0  0  0  0  0  0
   82.5513    2.7759   -0.3487 C   0  0  0  0  0  0  0  0  0  0  0  0
   82.3642    1.4289   -0.1849 N   0  0  0  0  0  0  0  0  0  0  0  0
   83.7657    3.4248   -0.4219 C   0  0  0  0  0  0  0  0  0  0  0  0
   84.9798    2.7761   -0.3399 C   0  0  0  0  0  0  0  0  0  0  0  0
   86.2364    3.4580   -0.4154 C   0  0  0  0  0  0  0  0  0  0  0  0
   87.1959    2.5116   -0.3037 C   0  0  0  0  0  0  0  0  0  0  0  0
   86.5161    1.2596   -0.1608 C   0  0  0  0  0  0  0  0  0  0  0  0
   85.1662    1.4282   -0.1826 N   0  0  0  0  0  0  0  0  0  0  0  0
   87.1926    0.0440   -0.0216 C   0  0  0  0  0  0  0  0  0  0  0  0
   86.5157   -1.1713    0.1181 C   0  0  0  0  0  0  0  0  0  0  0  0
   87.1949   -2.4236    0.2614 C   0  0  0  0  0  0  0  0  0  0  0  0
   86.2350   -3.3695    0.3728 C   0  0  0  0  0  0  0  0  0  0  0  0
   84.9787   -2.6872    0.2966 C   0  0  0  0  0  0  0  0  0  0  0  0
   85.1657   -1.3393    0.1399 N   0  0  0  0  0  0  0  0  0  0  0  0
   83.7642   -3.3354    0.3754 C   0  0  0  0  0  0  0  0  0  0  0  0
   82.5502   -2.6855    0.3033 C   0  0  0  0  0  0  0  0  0  0  0  0
   82.3638   -1.3377    0.1452 N   0  0  0  0  0  0  0  0  0  0  0  0
   81.1837   -4.4258    0.5130 H   0  0  0  0  0  0  0  0  0  0  0  0
   79.2676   -2.5313    0.2974 H   0  0  0  0  0  0  0  0  0  0  0  0
   79.2686    2.6248   -0.3328 H   0  0  0  0  0  0  0  0  0  0  0  0
   81.1857    4.5163   -0.5640 H   0  0  0  0  0  0  0  0  0  0  0  0
   83.7662    4.4965   -0.5498 H   0  0  0  0  0  0  0  0  0  0  0  0
   86.3462    4.5179   -0.5374 H   0  0  0  0  0  0  0  0  0  0  0  0
   88.2624    2.6244   -0.3143 H   0  0  0  0  0  0  0  0  0  0  0  0
   88.2614   -2.5368    0.2721 H   0  0  0  0  0  0  0  0  0  0  0  0
   86.3443   -4.4294    0.4954 H   0  0  0  0  0  0  0  0  0  0  0  0
   83.7638   -4.4074    0.5005 H   0  0  0  0  0  0  0  0  0  0  0  0
   97.1881    0.0462   -0.0219 Ni  0  0  0  0  0  0  0  0  0  0  0  0
   94.7177   -3.3651    0.3935 C   0  0  0  0  0  0  0  0  0  0  0  0
   93.7578   -2.4191    0.2825 C   0  0  0  0  0  0  0  0  0  0  0  0
   94.4371   -1.1681    0.1285 C   0  0  0  0  0  0  0  0  0  0  0  0
   93.7601    0.0461   -0.0200 C   0  0  0  0  0  0  0  0  0  0  0  0
   94.4366    1.2605   -0.1691 C   0  0  0  0  0  0  0  0  0  0  0  0
   93.7572    2.5113   -0.3232 C   0  0  0  0  0  0  0  0  0  0  0  0
   94.7170    3.4572   -0.4364 C   0  0  0  0  0  0  0  0  0  0  0  0
   95.9734    2.7762   -0.3504 C   0  0  0  0  0  0  0  0  0  0  0  0
   95.7866    1.4291   -0.1876 N   0  0  0  0  0  0  0  0  0  0  0  0
   97.1877    3.4256   -0.4229 C   0  0  0  0  0  0  0  0  0  0  0  0
   98.4021    2.7775   -0.3408 C   0  0  0  0  0  0  0  0  0  0  0  0
   99.6583    3.4602   -0.4158 C   0  0  0  0  0  0  0  0  0  0  0  0
  100.6184    2.5145   -0.3035 C   0  0  0  0  0  0  0  0  0  0  0  0
   99.9395    1.2620   -0.1610 C   0  0  0  0  0  0  0  0  0  0  0  0
   98.5894    1.4298   -0.1835 N   0  0  0  0  0  0  0  0  0  0  0  0
  100.6167    0.0466   -0.0225 C   0  0  0  0  0  0  0  0  0  0  0  0
   99.9397   -1.1689    0.1159 C   0  0  0  0  0  0  0  0  0  0  0  0
  100.6189   -2.4213    0.2572 C   0  0  0  0  0  0  0  0  0  0  0  0
   99.6590   -3.3673    0.3689 C   0  0  0  0  0  0  0  0  0  0  0  0
   98.4027   -2.6849    0.2949 C   0  0  0  0  0  0  0  0  0  0  0  0
   98.5896   -1.3370    0.1386 N   0  0  0  0  0  0  0  0  0  0  0  0
   97.1885   -3.3333    0.3770 C   0  0  0  0  0  0  0  0  0  0  0  0
   95.9740   -2.6840    0.3063 C   0  0  0  0  0  0  0  0  0  0  0  0
   95.7870   -1.3368    0.1449 N   0  0  0  0  0  0  0  0  0  0  0  0
   94.6083   -4.4243    0.5221 H   0  0  0  0  0  0  0  0  0  0  0  0
   92.6913   -2.5315    0.3001 H   0  0  0  0  0  0  0  0  0  0  0  0
   92.6907    2.6238   -0.3391 H   0  0  0  0  0  0  0  0  0  0  0  0
   94.6074    4.5164   -0.5657 H   0  0  0  0  0  0  0  0  0  0  0  0
   97.1876    4.4974   -0.5504 H   0  0  0  0  0  0  0  0  0  0  0  0
   99.7675    4.5202   -0.5380 H   0  0  0  0  0  0  0  0  0  0  0  0
  101.6849    2.6280   -0.3134 H   0  0  0  0  0  0  0  0  0  0  0  0
  101.6854   -2.5347    0.2668 H   0  0  0  0  0  0  0  0  0  0  0  0
   99.7684   -4.4274    0.4902 H   0  0  0  0  0  0  0  0  0  0  0  0
   97.1887   -4.4052    0.5033 H   0  0  0  0  0  0  0  0  0  0  0  0
  110.6146    0.0153   -0.0198 Ni  0  0  0  0  0  0  0  0  0  0  0  0
  108.1285   -3.3865    0.3780 C   0  0  0  0  0  0  0  0  0  0  0  0
  107.1726   -2.4361    0.2705 C   0  0  0  0  0  0  0  0  0  0  0  0
  107.8569   -1.1872    0.1225 C   0  0  0  0  0  0  0  0  0  0  0  0
  107.1850    0.0306   -0.0207 C   0  0  0  0  0  0  0  0  0  0  0  0
  107.8678    1.2423   -0.1631 C   0  0  0  0  0  0  0  0  0  0  0  0
  107.1947    2.4973   -0.3113 C   0  0  0  0  0  0  0  0  0  0  0  0
  108.1591    3.4392   -0.4178 C   0  0  0  0  0  0  0  0  0  0  0  0
  109.4122    2.7517   -0.3338 C   0  0  0  0  0  0  0  0  0  0  0  0
  109.2187    1.4046   -0.1788 N   0  0  0  0  0  0  0  0  0  0  0  0
  110.6297    3.3956   -0.4008 C   0  0  0  0  0  0  0  0  0  0  0  0
  111.8413    2.7418   -0.3207 C   0  0  0  0  0  0  0  0  0  0  0  0
  113.1004    3.4199   -0.3903 C   0  0  0  0  0  0  0  0  0  0  0  0
  114.0566    2.4698   -0.2826 C   0  0  0  0  0  0  0  0  0  0  0  0
  113.3726    1.2191   -0.1475 C   0  0  0  0  0  0  0  0  0  0  0  0
  112.0230    1.3926   -0.1709 N   0  0  0  0  0  0  0  0  0  0  0  0
  114.0448    0.0000   -0.0184 C   0  0  0  0  0  0  0  0  0  0  0  0
  113.3618   -1.2130    0.1102 C   0  0  0  0  0  0  0  0  0  0  0  0
  114.0345   -2.4696    0.2458 C   0  0  0  0  0  0  0  0  0  0  0  0
  113.0698   -3.4111    0.3543 C   0  0  0  0  0  0  0  0  0  0  0  0
  111.8169   -2.7219    0.2833 C   0  0  0  0  0  0  0  0  0  0  0  0
  112.0105   -1.3745    0.1326 N   0  0  0  0  0  0  0  0  0  0  0  0
  110.5994   -3.3649    0.3629 C   0  0  0  0  0  0  0  0  0  0  0  0
  109.3878   -2.7102    0.2947 C   0  0  0  0  0  0  0  0  0  0  0  0
  109.2063   -1.3615    0.1391 N   0  0  0  0  0  0  0  0  0  0  0  0
  108.0146   -4.4458    0.5018 H   0  0  0  0  0  0  0  0  0  0  0  0
  106.1056   -2.5443    0.2868 H   0  0  0  0  0  0  0  0  0  0  0  0
  106.1287    2.6150   -0.3281 H   0  0  0  0  0  0  0  0  0  0  0  0
  108.0548    4.4996   -0.5413 H   0  0  0  0  0  0  0  0  0  0  0  0
  110.6347    4.4681   -0.5221 H   0  0  0  0  0  0  0  0  0  0  0  0
  113.2139    4.4801   -0.5066 H   0  0  0  0  0  0  0  0  0  0  0  0
  115.1234    2.5791   -0.2917 H   0  0  0  0  0  0  0  0  0  0  0  0
  115.1004   -2.5883    0.2556 H   0  0  0  0  0  0  0  0  0  0  0  0
  113.1738   -4.4721    0.4720 H   0  0  0  0  0  0  0  0  0  0  0  0
  110.5947   -4.4373    0.4848 H   0  0  0  0  0  0  0  0  0  0  0  0
  2  3  2  0  0  0  0
  3  4  1  0  0  0  0
  4  5  4  0  0  0  0
  5  6  4  0  0  0  0
  6  7  1  0  0  0  0
  7  8  2  0  0  0  0
  8  9  1  0  0  0  0
  1 10  1  0  0  0  0
  6 10  4  0  0  0  0
  9 10  4  0  0  0  0
  9 11  4  0  0  0  0
 11 12  4  0  0  0  0
 12 13  1  0  0  0  0
 13 14  2  0  0  0  0
 14 15  1  0  0  0  0
  1 16  1  0  0  0  0
 12 16  4  0  0  0  0
 15 16  4  0  0  0  0
 15 17  4  0  0  0  0
 17 18  4  0  0  0  0
 18 19  1  0  0  0  0
 19 20  2  0  0  0  0
 20 21  1  0  0  0  0
  1 22  1  0  0  0  0
 18 22  4  0  0  0  0
 21 22  4  0  0  0  0
 21 23  4  0  0  0  0
  2 24  1  0  0  0  0
 23 24  4  0  0  0  0
  1 25  1  0  0  0  0
  4 25  4  0  0  0  0
 24 25  4  0  0  0  0
  2 26  1  0  0  0  0
  3 27  1  0  0  0  0
  7 28  1  0  0  0  0
  8 29  1  0  0  0  0
 11 30  1  0  0  0  0
 13 31  1  0  0  0  0
 14 32  1  0  0  0  0
 17 33  1  0  0  0  0
 19 34  1  0  0  0  0
 20 35  1  0  0  0  0
 23 36  1  0  0  0  0
 38 39  2  0  0  0  0
 39 40  1  0  0  0  0
 40 41  4  0  0  0  0
 41 42  4  0  0  0  0
 42 43  1  0  0  0  0
 43 44  2  0  0  0  0
 44 45  1  0  0  0  0
 37 46  1  0  0  0  0
 42 46  4  0  0  0  0
 45 46  4  0  0  0  0
 45 47  4  0  0  0  0
 47 48  4  0  0  0  0
 48 49  1  0  0  0  0
 49 50  2  0  0  0  0
 50 51  1  0  0  0  0
 37 52  1  0  0  0  0
 48 52  4  0  0  0  0
 51 52  4  0  0  0  0
 51 53  4  0  0  0  0
 53 54  4  0  0  0  0
 54 55  1  0  0  0  0
 55 56  2  0  0  0  0
 56 57  1  0  0  0  0
 37 58  1  0  0  0  0
 54 58  4  0  0  0  0
 57 58  4  0  0  0  0
 57 59  4  0  0  0  0
 38 60  1  0  0  0  0
 59 60  4  0  0  0  0
 37 61  1  0  0  0  0
 40 61  4  0  0  0  0
 60 61  4  0  0  0  0
 38 62  1  0  0  0  0
 39 63  1  0  0  0  0
 43 64  1  0  0  0  0
 44 65  1  0  0  0  0
 47 66  1  0  0  0  0
 49 67  1  0  0  0  0
 50 68  1  0  0  0  0
 53 69  1  0  0  0  0
 55 70  1  0  0  0  0
 56 71  1  0  0  0  0
 59 72  1  0  0  0  0
  5 73  1  0  0  0  0
 73 74  3  0  0  0  0
 74 75  4  0  0  0  0
 75 76  3  0  0  0  0
 77 78  3  0  0  0  0
 78 79  4  0  0  0  0
 79 80  3  0  0  0  0
 81 82  3  0  0  0  0
 82 83  4  0  0  0  0
 83 84  3  0  0  0  0
 85 86  3  0  0  0  0
 86 87  4  0  0  0  0
 87 88  3  0  0  0  0
 89 90  3  0  0  0  0
 90 91  4  0  0  0  0
 91 92  3  0  0  0  0
 93 94  3  0  0  0  0
 94 95  4  0  0  0  0
 41 96  1  0  0  0  0
 95 96  3  0  0  0  0
 98 99  2  0  0  0  0
 99100  1  0  0  0  0
 76101  1  0  0  0  0
100101  4  0  0  0  0
101102  4  0  0  0  0
102103  1  0  0  0  0
103104  2  0  0  0  0
104105  1  0  0  0  0
 97106  1  0  0  0  0
102106  4  0  0  0  0
105106  4  0  0  0  0
105107  4  0  0  0  0
107108  4  0  0  0  0
108109  1  0  0  0  0
109110  2  0  0  0  0
110111  1  0  0  0  0
 97112  1  0  0  0  0
108112  4  0  0  0  0
111112  4  0  0  0  0
 77113  1  0  0  0  0
111113  4  0  0  0  0
113114  4  0  0  0  0
114115  1  0  0  0  0
115116  2  0  0  0  0
116117  1  0  0  0  0
 97118  1  0  0  0  0
114118  4  0  0  0  0
117118  4  0  0  0  0
117119  4  0  0  0  0
 98120  1  0  0  0  0
119120  4  0  0  0  0
 97121  1  0  0  0  0
100121  4  0  0  0  0
120121  4  0  0  0  0
 98122  1  0  0  0  0
 99123  1  0  0  0  0
103124  1  0  0  0  0
104125  1  0  0  0  0
107126  1  0  0  0  0
109127  1  0  0  0  0
110128  1  0  0  0  0
115129  1  0  0  0  0
116130  1  0  0  0  0
119131  1  0  0  0  0
133134  2  0  0  0  0
134135  1  0  0  0  0
 80136  1  0  0  0  0
135136  4  0  0  0  0
136137  4  0  0  0  0
137138  1  0  0  0  0
138139  2  0  0  0  0
139140  1  0  0  0  0
132141  1  0  0  0  0
137141  4  0  0  0  0
140141  4  0  0  0  0
140142  4  0  0  0  0
142143  4  0  0  0  0
143144  1  0  0  0  0
144145  2  0  0  0  0
145146  1  0  0  0  0
132147  1  0  0  0  0
143147  4  0  0  0  0
146147  4  0  0  0  0
 81148  1  0  0  0  0
146148  4  0  0  0  0
148149  4  0  0  0  0
149150  1  0  0  0  0
150151  2  0  0  0  0
151152  1  0  0  0  0
132153  1  0  0  0  0
149153  4  0  0  0  0
152153  4  0  0  0  0
152154  4  0  0  0  0
133155  1  0  0  0  0
154155  4  0  0  0  0
132156  1  0  0  0  0
135156  4  0  0  0  0
155156  4  0  0  0  0
133157  1  0  0  0  0
134158  1  0  0  0  0
138159  1  0  0  0  0
139160  1  0  0  0  0
142161  1  0  0  0  0
144162  1  0  0  0  0
145163  1  0  0  0  0
150164  1  0  0  0  0
151165  1  0  0  0  0
154166  1  0  0  0  0
168169  2  0  0  0  0
169170  1  0  0  0  0
 84171  1  0  0  0  0
170171  4  0  0  0  0
171172  4  0  0  0  0
172173  1  0  0  0  0
173174  2  0  0  0  0
174175  1  0  0  0  0
167176  1  0  0  0  0
172176  4  0  0  0  0
175176  4  0  0  0  0
175177  4  0  0  0  0
177178  4  0  0  0  0
178179  1  0  0  0  0
179180  2  0  0  0  0
180181  1  0  0  0  0
167182  1  0  0  0  0
178182  4  0  0  0  0
181182  4  0  0  0  0
 85183  1  0  0  0  0
181183  4  0  0  0  0
183184  4  0  0  0  0
184185  1  0  0  0  0
185186  2  0  0  0  0
186187  1  0  0  0  0
167188  1  0  0  0  0
184188  4  0  0  0  0
187188  4  0  0  0  0
187189  4  0  0  0  0
168190  1  0  0  0  0
189190  4  0  0  0  0
167191  1  0  0  0  0
170191  4  0  0  0  0
190191  4  0  0  0  0
168192  1  0  0  0  0
169193  1  0  0  0  0
173194  1  0  0  0  0
174195  1  0  0  0  0
177196  1  0  0  0  0
179197  1  0  0  0  0
180198  1  0  0  0  0
185199  1  0  0  0  0
186200  1  0  0  0  0
189201  1  0  0  0  0
203204  2  0  0  0  0
204205  1  0  0  0  0
 88206  1  0  0  0  0
205206  4  0  0  0  0
206207  4  0  0  0  0
207208  1  0  0  0  0
208209  2  0  0  0  0
209210  1  0  0  0  0
202211  1  0  0  0  0
207211  4  0  0  0  0
210211  4  0  0  0  0
210212  4  0  0  0  0
212213  4  0  0  0  0
213214  1  0  0  0  0
214215  2  0  0  0  0
215216  1  0  0  0  0
202217  1  0  0  0  0
213217  4  0  0  0  0
216217  4  0  0  0  0
 89218  1  0  0  0  0
216218  4  0  0  0  0
218219  4  0  0  0  0
219220  1  0  0  0  0
220221  2  0  0  0  0
221222  1  0  0  0  0
202223  1  0  0  0  0
219223  4  0  0  0  0
222223  4  0  0  0  0
222224  4  0  0  0  0
203225  1  0  0  0  0
224225  4  0  0  0  0
202226  1  0  0  0  0
205226  4  0  0  0  0
225226  4  0  0  0  0
203227  1  0  0  0  0
204228  1  0  0  0  0
208229  1  0  0  0  0
209230  1  0  0  0  0
212231  1  0  0  0  0
214232  1  0  0  0  0
215233  1  0  0  0  0
220234  1  0  0  0  0
221235  1  0  0  0  0
224236  1  0  0  0  0
238239  2  0  0  0  0
239240  1  0  0  0  0
 92241  1  0  0  0  0
240241  4  0  0  0  0
241242  4  0  0  0  0
242243  1  0  0  0  0
243244  2  0  0  0  0
244245  1  0  0  0  0
237246  1  0  0  0  0
242246  4  0  0  0  0
245246  4  0  0  0  0
245247  4  0  0  0  0
247248  4  0  0  0  0
248249  1  0  0  0  0
249250  2  0  0  0  0
250251  1  0  0  0  0
237252  1  0  0  0  0
248252  4  0  0  0  0
251252  4  0  0  0  0
 93253  1  0  0  0  0
251253  4  0  0  0  0
253254  4  0  0  0  0
254255  1  0  0  0  0
255256  2  0  0  0  0
256257  1  0  0  0  0
237258  1  0  0  0  0
254258  4  0  0  0  0
257258  4  0  0  0  0
257259  4  0  0  0  0
238260  1  0  0  0  0
259260  4  0  0  0  0
237261  1  0  0  0  0
240261  4  0  0  0  0
260261  4  0  0  0  0
238262  1  0  0  0  0
239263  1  0  0  0  0
243264  1  0  0  0  0
244265  1  0  0  0  0
247266  1  0  0  0  0
249267  1  0  0  0  0
250268  1  0  0  0  0
255269  1  0  0  0  0
256270  1  0  0  0  0
259271  1  0  0  0  0
M  END
