349

Zn 57.866718 0.008959 -0.015544
C 60.399861 -3.426075 0.001447
C 61.353084 -2.463138 0.002700
C 60.663980 -1.204264 -0.002159
C 61.302815 0.046607 -0.003711
C 60.636950 1.283173 -0.007754
C 61.298334 2.556803 -0.005372
C 60.324234 3.498638 -0.008294
C 59.071316 2.798068 -0.012877
N 59.293462 1.453458 -0.012150
C 57.830137 3.412300 -0.018228
C 56.603217 2.769832 -0.023999
C 55.329930 3.437743 -0.031344
C 54.383037 2.470798 -0.035744
C 55.077130 1.211200 -0.030780
N 56.419029 1.423505 -0.023885
C 54.458531 -0.028408 -0.032222
C 55.104036 -1.254209 -0.026663
C 54.437662 -2.528706 -0.027256
C 55.405493 -3.474676 -0.020287
C 56.663846 -2.779027 -0.015563
N 56.450252 -1.437067 -0.019548
C 57.904542 -3.394439 -0.008386
C 59.131926 -2.753123 -0.004477
N 59.324570 -1.403948 -0.006411
H 60.528297 -4.491324 0.003954
H 62.419946 -2.576327 0.006183
H 62.362489 2.693275 -0.001355
H 60.429276 4.566446 -0.007358
H 57.819122 4.493442 -0.018441
H 55.197807 4.502749 -0.033021
H 53.315526 2.580627 -0.041732
H 53.377590 -0.040217 -0.037822
H 53.372811 -2.661909 -0.032259
H 55.296752 -4.542323 -0.018452
H 57.917274 -4.475558 -0.006065
Zn 165.491418 0.043434 -0.014050
C 162.966954 3.432926 0.582047
C 162.011269 2.487047 0.415224
C 162.697173 1.245095 0.198757
C 162.055380 0.013287 -0.009199
C 162.718029 -1.207304 -0.217103
C 162.053327 -2.461393 -0.429477
C 163.024964 -3.390759 -0.597061
C 164.279688 -2.702165 -0.486758
N 164.061083 -1.377189 -0.254565
C 165.519228 -3.308342 -0.604818
C 166.747742 -2.676803 -0.504809
C 168.019288 -3.335683 -0.633210
C 168.968656 -2.385059 -0.470094
C 168.277831 -1.144490 -0.241770
N 166.935407 -1.351660 -0.269644
C 168.899603 0.074138 -0.023544
C 168.257245 1.281241 0.199050
C 168.926908 2.533791 0.425021
C 167.961512 3.466840 0.595392
C 166.701345 2.785306 0.473321
N 166.911489 1.464108 0.235046
C 165.462243 3.394557 0.580683
C 164.233206 2.766629 0.466688
N 164.037152 1.438395 0.233009
H 162.841247 4.482496 0.766115
H 160.944675 2.601275 0.435050
H 160.988834 -2.594252 -0.446042
H 162.917117 -4.442696 -0.778822
H 165.527417 -4.373062 -0.792674
H 168.148635 -4.384095 -0.822414
H 170.035862 -2.494424 -0.498152
H 169.980575 0.083917 -0.026846
H 169.992110 2.662398 0.446877
H 168.073025 4.517125 0.785551
H 165.452292 4.458926 0.770430
C 62.701325 0.060755 -0.001010
C 63.919567 0.069567 -0.000928
C 65.261490 0.075086 -0.001799
C 66.479861 0.076422 -0.004702
C 76.152446 0.053254 -0.022844
C 77.371071 0.050186 -0.022685
C 78.712703 0.047828 -0.023214
C 79.931341 0.046200 -0.022743
C 89.605912 0.045121 -0.021101
C 90.824622 0.045362 -0.020094
C 92.166384 0.045624 -0.021356
C 93.385091 0.046230 -0.022318
C 103.061400 0.046103 -0.020914
C 104.280148 0.046503 -0.020577
C 105.621996 0.046805 -0.020325
C 106.840752 0.046339 -0.022074
C 116.517642 0.046049 -0.020803
C 117.736395 0.047169 -0.021643
C 119.078239 0.047670 -0.021710
C 120.296987 0.045859 -0.024233
C 129.973181 0.046315 -0.020854
C 131.191879 0.046424 -0.021066
C 132.533621 0.047581 -0.021251
C 133.752304 0.048106 -0.020717
C 143.426734 0.047514 -0.023063
C 144.645357 0.045160 -0.023383
C 145.986982 0.041978 -0.023957
C 147.205581 0.036897 -0.023135
C 156.878048 -0.004615 -0.013531
C 158.096345 -0.005306 -0.012379
C 159.438436 -0.002979 -0.009724
C 160.656622 0.002324 -0.009415
Zn 71.316038 0.065106 -0.014529
C 68.814011 -3.368621 0.378335
C 67.851621 -2.420348 0.272335
C 68.528786 -1.163588 0.129538
C 67.877850 0.073799 -0.006685
C 68.534464 1.307746 -0.146048
C 67.862860 2.567737 -0.286371
C 68.829412 3.511194 -0.397419
C 70.087049 2.824518 -0.324464
N 69.876369 1.486681 -0.171239
C 71.323673 3.442350 -0.400996
C 72.557306 2.817729 -0.334761
C 73.817961 3.497703 -0.418148
C 74.780379 2.549545 -0.311657
C 74.103358 1.293307 -0.163608
N 72.762330 1.478932 -0.180811
C 74.754661 0.056619 -0.021207
C 74.097779 -1.176914 0.122905
C 74.769174 -2.436594 0.267331
C 73.802510 -3.380063 0.376950
C 72.544927 -2.693801 0.299138
N 72.755934 -1.355904 0.145204
C 71.308486 -3.312237 0.370442
C 70.074672 -2.688120 0.299974
N 69.869899 -1.349151 0.148548
H 68.695676 -4.428228 0.498380
H 66.785862 -2.542349 0.287806
H 66.797635 2.694901 -0.297082
H 68.715749 4.571315 -0.517607
H 71.326110 4.516579 -0.524301
H 73.936111 4.556979 -0.541363
H 75.846120 2.671363 -0.329558
H 75.834362 -2.563708 0.280877
H 73.915930 -4.439992 0.498893
H 71.305994 -4.386545 0.493079
Zn 84.768369 0.045533 -0.021675
C 82.273829 -3.392370 0.381683
C 81.309153 -2.446985 0.270465
C 81.983236 -1.189204 0.122675
C 81.329111 0.045652 -0.022661
C 81.983516 1.280443 -0.167656
C 81.309598 2.538301 -0.315678
C 82.274392 3.483595 -0.426593
C 83.533314 2.800175 -0.345917
N 83.325045 1.462323 -0.188701
C 84.768687 3.420875 -0.418512
C 86.003866 2.799996 -0.344922
C 87.262838 3.483462 -0.424739
C 88.227596 2.538224 -0.313221
C 87.553680 1.280280 -0.165712
N 86.212136 1.462115 -0.187520
C 88.208012 0.045402 -0.020816
C 87.553400 -1.189388 0.123876
C 88.227161 -2.447413 0.271371
C 87.262310 -3.392657 0.381966
C 86.003415 -2.709123 0.301740
N 86.211851 -1.371180 0.145030
C 84.768140 -3.329918 0.374403
C 83.532851 -2.709056 0.301481
N 83.324758 -1.371196 0.144255
H 82.158054 -4.451746 0.506266
H 80.243683 -2.571661 0.285050
H 80.244160 2.663106 -0.330585
H 82.158705 4.542976 -0.551121
H 84.768780 4.494756 -0.544923
H 87.378430 4.542865 -0.549266
H 89.293043 2.663098 -0.327391
H 89.292582 -2.572341 0.286194
H 87.377825 -4.452110 0.506036
H 84.768072 -4.403859 0.500316
Zn 98.223095 0.046097 -0.022815
C 95.728616 -3.392049 0.378217
C 94.763735 -2.446846 0.267367
C 95.437483 -1.188704 0.120999
C 94.783000 0.046295 -0.022383
C 95.437705 1.281151 -0.165924
C 94.764106 2.539485 -0.311450
C 95.729116 3.484633 -0.421773
C 96.987924 2.800673 -0.343432
N 96.779327 1.462664 -0.187872
C 98.223348 3.421219 -0.416828
C 99.458695 2.800343 -0.345374
C 100.717555 3.483937 -0.426042
C 101.682488 2.538761 -0.315487
C 101.008837 1.280722 -0.167642
N 99.667225 1.462438 -0.188743
C 101.663412 0.046000 -0.022036
C 101.008573 -1.188662 0.122972
C 101.682090 -2.446691 0.271543
C 100.717054 -3.391768 0.382130
C 99.458272 -2.708134 0.300771
N 99.666943 -1.370313 0.143518
C 98.222891 -3.328906 0.372707
C 96.987502 -2.708345 0.299005
N 96.779070 -1.370431 0.142595
H 95.613069 -4.451554 0.501914
H 93.698307 -2.571859 0.281437
H 93.698683 2.664663 -0.325139
H 95.613696 4.544257 -0.544478
H 98.223360 4.495256 -0.541970
H 100.833004 4.543377 -0.550343
H 102.747909 2.663738 -0.330546
H 102.747501 -2.571721 0.286941
H 100.832387 -4.451158 0.506978
H 98.222886 -4.402828 0.498820
Zn 111.679203 0.045977 -0.022057
C 109.184643 -3.391134 0.385504
C 108.219717 -2.445994 0.274472
C 108.893381 -1.188171 0.124983
C 108.238740 0.046458 -0.021189
C 108.893607 1.280920 -0.167662
C 108.220223 2.538962 -0.316617
C 109.185359 3.483771 -0.428624
C 110.444072 2.799950 -0.347704
N 110.235282 1.462308 -0.189290
C 111.679547 3.420420 -0.420839
C 112.914893 2.799821 -0.346765
C 114.173758 3.483518 -0.426352
C 115.138675 2.538499 -0.314213
C 114.465003 1.280454 -0.166605
N 113.123393 1.462060 -0.188927
C 115.119655 0.045721 -0.021230
C 114.464816 -1.188941 0.123509
C 115.138205 -2.447125 0.271216
C 114.173065 -3.392061 0.382126
C 112.914345 -2.708155 0.301946
N 113.123139 -1.370370 0.144719
C 111.678859 -3.328545 0.375624
C 110.443508 -2.707712 0.303536
N 110.234996 -1.369965 0.145571
H 109.069150 -4.450415 0.511082
H 107.154293 -2.570844 0.290313
H 107.154826 2.664199 -0.331263
H 109.070124 4.543101 -0.554051
H 111.679655 4.494226 -0.547944
H 114.289260 4.542904 -0.551014
H 116.204095 2.663605 -0.328032
H 116.203608 -2.572325 0.285946
H 114.288307 -4.451514 0.506522
H 111.678745 -4.402440 0.501977
Zn 125.135239 0.046144 -0.021305
C 122.640910 -3.391333 0.385140
C 121.675970 -2.446383 0.272683
C 122.349630 -1.188418 0.124219
C 121.694969 0.046185 -0.021822
C 122.349689 1.280904 -0.167010
C 121.676143 2.539004 -0.314851
C 122.641147 3.483912 -0.427068
C 123.899944 2.800101 -0.347514
N 123.691312 1.462414 -0.189113
C 125.135316 3.420428 -0.423140
C 126.370687 2.799689 -0.350571
C 127.629567 3.482964 -0.433497
C 128.594458 2.538014 -0.320558
C 127.920709 1.280466 -0.169139
N 126.579119 1.462216 -0.190369
C 128.575282 0.046082 -0.020966
C 127.920708 -1.188363 0.126641
C 128.594346 -2.446093 0.277062
C 127.629377 -3.391111 0.388794
C 126.370545 -2.707670 0.306465
N 126.579098 -1.370068 0.147447
C 125.135110 -3.328270 0.379161
C 123.899774 -2.707679 0.304920
N 123.691242 -1.369984 0.146455
H 122.525468 -4.450640 0.510598
H 120.610535 -2.571411 0.287027
H 120.610740 2.664231 -0.328623
H 122.525790 4.543311 -0.551804
H 125.135356 4.494105 -0.551314
H 127.745105 4.542028 -0.560883
H 129.659891 2.662842 -0.336161
H 129.659766 -2.570986 0.292877
H 127.744831 -4.450325 0.514990
H 125.135051 -4.402072 0.506300
Zn 138.589776 0.048196 -0.021569
C 136.095561 -3.389491 0.385160
C 135.130781 -2.444263 0.273819
C 135.804651 -1.186463 0.124921
C 135.150195 0.048213 -0.021265
C 135.804639 1.282827 -0.168000
C 135.130788 2.540571 -0.317540
C 136.095586 3.485673 -0.429853
C 137.354533 2.802351 -0.348460
N 137.146186 1.464652 -0.189552
C 138.589761 3.423167 -0.421813
C 139.825094 2.802550 -0.347571
C 141.084088 3.485909 -0.428011
C 142.048809 2.540683 -0.315835
C 141.374781 1.282958 -0.167253
N 140.033247 1.464856 -0.189022
C 142.028971 0.048169 -0.021786
C 141.374690 -1.186581 0.124127
C 142.048707 -2.444344 0.272448
C 141.083991 -3.389632 0.384042
C 139.825021 -2.706296 0.303574
N 140.033181 -1.368499 0.145789
C 138.589711 -3.327028 0.376957
C 137.354502 -2.706144 0.304050
N 137.146188 -1.368338 0.146066
H 135.979999 -4.448813 0.510381
H 134.065345 -2.569067 0.288915
H 134.065353 2.665406 -0.332509
H 135.980009 4.544900 -0.555804
H 138.589740 4.496910 -0.549399
H 141.199827 4.545200 -0.553385
H 143.114278 2.665429 -0.330163
H 143.114144 -2.569091 0.287228
H 141.199743 -4.448949 0.508994
H 138.589710 -4.400889 0.503530
Zn 152.041836 0.015695 -0.019899
C 149.532007 -3.413779 0.359977
C 148.571837 -2.463148 0.255405
C 149.251824 -1.207601 0.115182
C 148.603366 0.031039 -0.023289
C 149.263013 1.263795 -0.160944
C 148.594547 2.525357 -0.302631
C 149.563412 3.467397 -0.404844
C 150.819409 2.778393 -0.325232
N 150.605285 1.440240 -0.178011
C 152.057258 3.394910 -0.388238
C 153.289592 2.768182 -0.314996
C 154.551888 3.446645 -0.384633
C 155.512004 2.496051 -0.279024
C 154.831825 1.239855 -0.145437
N 153.491136 1.428142 -0.169068
C 155.479854 0.000337 -0.015816
C 154.820634 -1.233308 0.112086
C 155.489334 -2.495432 0.247258
C 154.520572 -3.437464 0.350730
C 153.264501 -2.747826 0.278348
N 153.478252 -1.409674 0.132724
C 152.026447 -3.363511 0.349143
C 150.794276 -2.736037 0.283062
N 150.592405 -1.396093 0.135001
H 149.411336 -4.473377 0.477889
H 147.505810 -2.582875 0.269770
H 147.529660 2.654574 -0.319543
H 149.452487 4.528049 -0.522721
H 152.062231 4.469763 -0.505908
H 154.672767 4.506559 -0.499357
H 156.578062 2.616024 -0.289960
H 156.554271 -2.624818 0.260359
H 154.631755 -4.498429 0.465634
H 152.021560 -4.438300 0.467380
