
  xtb     11212121263D
 xtb: 6.4.1 (bd6e46d)
349420  0     0  0            999 V2000
   57.8667    0.0090   -0.0155 Zn  0  0  0  0  0  0  0  0  0  0  0  0
   60.3999   -3.4261    0.0014 C   0  0  0  0  0  0  0  0  0  0  0  0
   61.3531   -2.4631    0.0027 C   0  0  0  0  0  0  0  0  0  0  0  0
   60.6640   -1.2043   -0.0022 C   0  0  0  0  0  0  0  0  0  0  0  0
   61.3028    0.0466   -0.0037 C   0  0  0  0  0  0  0  0  0  0  0  0
   60.6369    1.2832   -0.0078 C   0  0  0  0  0  0  0  0  0  0  0  0
   61.2983    2.5568   -0.0054 C   0  0  0  0  0  0  0  0  0  0  0  0
   60.3242    3.4986   -0.0083 C   0  0  0  0  0  0  0  0  0  0  0  0
   59.0713    2.7981   -0.0129 C   0  0  0  0  0  0  0  0  0  0  0  0
   59.2935    1.4535   -0.0122 N   0  0  0  0  0  0  0  0  0  0  0  0
   57.8301    3.4123   -0.0182 C   0  0  0  0  0  0  0  0  0  0  0  0
   56.6032    2.7698   -0.0240 C   0  0  0  0  0  0  0  0  0  0  0  0
   55.3299    3.4377   -0.0313 C   0  0  0  0  0  0  0  0  0  0  0  0
   54.3830    2.4708   -0.0357 C   0  0  0  0  0  0  0  0  0  0  0  0
   55.0771    1.2112   -0.0308 C   0  0  0  0  0  0  0  0  0  0  0  0
   56.4190    1.4235   -0.0239 N   0  0  0  0  0  0  0  0  0  0  0  0
   54.4585   -0.0284   -0.0322 C   0  0  0  0  0  0  0  0  0  0  0  0
   55.1040   -1.2542   -0.0267 C   0  0  0  0  0  0  0  0  0  0  0  0
   54.4377   -2.5287   -0.0273 C   0  0  0  0  0  0  0  0  0  0  0  0
   55.4055   -3.4747   -0.0203 C   0  0  0  0  0  0  0  0  0  0  0  0
   56.6638   -2.7790   -0.0156 C   0  0  0  0  0  0  0  0  0  0  0  0
   56.4503   -1.4371   -0.0195 N   0  0  0  0  0  0  0  0  0  0  0  0
   57.9045   -3.3944   -0.0084 C   0  0  0  0  0  0  0  0  0  0  0  0
   59.1319   -2.7531   -0.0045 C   0  0  0  0  0  0  0  0  0  0  0  0
   59.3246   -1.4039   -0.0064 N   0  0  0  0  0  0  0  0  0  0  0  0
   60.5283   -4.4913    0.0040 H   0  0  0  0  0  0  0  0  0  0  0  0
   62.4199   -2.5763    0.0062 H   0  0  0  0  0  0  0  0  0  0  0  0
   62.3625    2.6933   -0.0014 H   0  0  0  0  0  0  0  0  0  0  0  0
   60.4293    4.5664   -0.0074 H   0  0  0  0  0  0  0  0  0  0  0  0
   57.8191    4.4934   -0.0184 H   0  0  0  0  0  0  0  0  0  0  0  0
   55.1978    4.5027   -0.0330 H   0  0  0  0  0  0  0  0  0  0  0  0
   53.3155    2.5806   -0.0417 H   0  0  0  0  0  0  0  0  0  0  0  0
   53.3776   -0.0402   -0.0378 H   0  0  0  0  0  0  0  0  0  0  0  0
   53.3728   -2.6619   -0.0323 H   0  0  0  0  0  0  0  0  0  0  0  0
   55.2968   -4.5423   -0.0185 H   0  0  0  0  0  0  0  0  0  0  0  0
   57.9173   -4.4756   -0.0061 H   0  0  0  0  0  0  0  0  0  0  0  0
  165.4914    0.0434   -0.0140 Zn  0  0  0  0  0  0  0  0  0  0  0  0
  162.9670    3.4329    0.5820 C   0  0  0  0  0  0  0  0  0  0  0  0
  162.0113    2.4870    0.4152 C   0  0  0  0  0  0  0  0  0  0  0  0
  162.6972    1.2451    0.1988 C   0  0  0  0  0  0  0  0  0  0  0  0
  162.0554    0.0133   -0.0092 C   0  0  0  0  0  0  0  0  0  0  0  0
  162.7180   -1.2073   -0.2171 C   0  0  0  0  0  0  0  0  0  0  0  0
  162.0533   -2.4614   -0.4295 C   0  0  0  0  0  0  0  0  0  0  0  0
  163.0250   -3.3908   -0.5971 C   0  0  0  0  0  0  0  0  0  0  0  0
  164.2797   -2.7022   -0.4868 C   0  0  0  0  0  0  0  0  0  0  0  0
  164.0611   -1.3772   -0.2546 N   0  0  0  0  0  0  0  0  0  0  0  0
  165.5192   -3.3083   -0.6048 C   0  0  0  0  0  0  0  0  0  0  0  0
  166.7477   -2.6768   -0.5048 C   0  0  0  0  0  0  0  0  0  0  0  0
  168.0193   -3.3357   -0.6332 C   0  0  0  0  0  0  0  0  0  0  0  0
  168.9687   -2.3851   -0.4701 C   0  0  0  0  0  0  0  0  0  0  0  0
  168.2778   -1.1445   -0.2418 C   0  0  0  0  0  0  0  0  0  0  0  0
  166.9354   -1.3517   -0.2696 N   0  0  0  0  0  0  0  0  0  0  0  0
  168.8996    0.0741   -0.0235 C   0  0  0  0  0  0  0  0  0  0  0  0
  168.2572    1.2812    0.1991 C   0  0  0  0  0  0  0  0  0  0  0  0
  168.9269    2.5338    0.4250 C   0  0  0  0  0  0  0  0  0  0  0  0
  167.9615    3.4668    0.5954 C   0  0  0  0  0  0  0  0  0  0  0  0
  166.7013    2.7853    0.4733 C   0  0  0  0  0  0  0  0  0  0  0  0
  166.9115    1.4641    0.2350 N   0  0  0  0  0  0  0  0  0  0  0  0
  165.4622    3.3946    0.5807 C   0  0  0  0  0  0  0  0  0  0  0  0
  164.2332    2.7666    0.4667 C   0  0  0  0  0  0  0  0  0  0  0  0
  164.0372    1.4384    0.2330 N   0  0  0  0  0  0  0  0  0  0  0  0
  162.8412    4.4825    0.7661 H   0  0  0  0  0  0  0  0  0  0  0  0
  160.9447    2.6013    0.4350 H   0  0  0  0  0  0  0  0  0  0  0  0
  160.9888   -2.5943   -0.4460 H   0  0  0  0  0  0  0  0  0  0  0  0
  162.9171   -4.4427   -0.7788 H   0  0  0  0  0  0  0  0  0  0  0  0
  165.5274   -4.3731   -0.7927 H   0  0  0  0  0  0  0  0  0  0  0  0
  168.1486   -4.3841   -0.8224 H   0  0  0  0  0  0  0  0  0  0  0  0
  170.0359   -2.4944   -0.4982 H   0  0  0  0  0  0  0  0  0  0  0  0
  169.9806    0.0839   -0.0268 H   0  0  0  0  0  0  0  0  0  0  0  0
  169.9921    2.6624    0.4469 H   0  0  0  0  0  0  0  0  0  0  0  0
  168.0730    4.5171    0.7856 H   0  0  0  0  0  0  0  0  0  0  0  0
  165.4523    4.4589    0.7704 H   0  0  0  0  0  0  0  0  0  0  0  0
   62.7013    0.0608   -0.0010 C   0  0  0  0  0  0  0  0  0  0  0  0
   63.9196    0.0696   -0.0009 C   0  0  0  0  0  0  0  0  0  0  0  0
   65.2615    0.0751   -0.0018 C   0  0  0  0  0  0  0  0  0  0  0  0
   66.4799    0.0764   -0.0047 C   0  0  0  0  0  0  0  0  0  0  0  0
   76.1524    0.0533   -0.0228 C   0  0  0  0  0  0  0  0  0  0  0  0
   77.3711    0.0502   -0.0227 C   0  0  0  0  0  0  0  0  0  0  0  0
   78.7127    0.0478   -0.0232 C   0  0  0  0  0  0  0  0  0  0  0  0
   79.9313    0.0462   -0.0227 C   0  0  0  0  0  0  0  0  0  0  0  0
   89.6059    0.0451   -0.0211 C   0  0  0  0  0  0  0  0  0  0  0  0
   90.8246    0.0454   -0.0201 C   0  0  0  0  0  0  0  0  0  0  0  0
   92.1664    0.0456   -0.0214 C   0  0  0  0  0  0  0  0  0  0  0  0
   93.3851    0.0462   -0.0223 C   0  0  0  0  0  0  0  0  0  0  0  0
  103.0614    0.0461   -0.0209 C   0  0  0  0  0  0  0  0  0  0  0  0
  104.2801    0.0465   -0.0206 C   0  0  0  0  0  0  0  0  0  0  0  0
  105.6220    0.0468   -0.0203 C   0  0  0  0  0  0  0  0  0  0  0  0
  106.8408    0.0463   -0.0221 C   0  0  0  0  0  0  0  0  0  0  0  0
  116.5176    0.0460   -0.0208 C   0  0  0  0  0  0  0  0  0  0  0  0
  117.7364    0.0472   -0.0216 C   0  0  0  0  0  0  0  0  0  0  0  0
  119.0782    0.0477   -0.0217 C   0  0  0  0  0  0  0  0  0  0  0  0
  120.2970    0.0459   -0.0242 C   0  0  0  0  0  0  0  0  0  0  0  0
  129.9732    0.0463   -0.0209 C   0  0  0  0  0  0  0  0  0  0  0  0
  131.1919    0.0464   -0.0211 C   0  0  0  0  0  0  0  0  0  0  0  0
  132.5336    0.0476   -0.0213 C   0  0  0  0  0  0  0  0  0  0  0  0
  133.7523    0.0481   -0.0207 C   0  0  0  0  0  0  0  0  0  0  0  0
  143.4267    0.0475   -0.0231 C   0  0  0  0  0  0  0  0  0  0  0  0
  144.6454    0.0452   -0.0234 C   0  0  0  0  0  0  0  0  0  0  0  0
  145.9870    0.0420   -0.0240 C   0  0  0  0  0  0  0  0  0  0  0  0
  147.2056    0.0369   -0.0231 C   0  0  0  0  0  0  0  0  0  0  0  0
  156.8780   -0.0046   -0.0135 C   0  0  0  0  0  0  0  0  0  0  0  0
  158.0963   -0.0053   -0.0124 C   0  0  0  0  0  0  0  0  0  0  0  0
  159.4384   -0.0030   -0.0097 C   0  0  0  0  0  0  0  0  0  0  0  0
  160.6566    0.0023   -0.0094 C   0  0  0  0  0  0  0  0  0  0  0  0
   71.3160    0.0651   -0.0145 Zn  0  0  0  0  0  0  0  0  0  0  0  0
   68.8140   -3.3686    0.3783 C   0  0  0  0  0  0  0  0  0  0  0  0
   67.8516   -2.4203    0.2723 C   0  0  0  0  0  0  0  0  0  0  0  0
   68.5288   -1.1636    0.1295 C   0  0  0  0  0  0  0  0  0  0  0  0
   67.8779    0.0738   -0.0067 C   0  0  0  0  0  0  0  0  0  0  0  0
   68.5345    1.3077   -0.1460 C   0  0  0  0  0  0  0  0  0  0  0  0
   67.8629    2.5677   -0.2864 C   0  0  0  0  0  0  0  0  0  0  0  0
   68.8294    3.5112   -0.3974 C   0  0  0  0  0  0  0  0  0  0  0  0
   70.0870    2.8245   -0.3245 C   0  0  0  0  0  0  0  0  0  0  0  0
   69.8764    1.4867   -0.1712 N   0  0  0  0  0  0  0  0  0  0  0  0
   71.3237    3.4423   -0.4010 C   0  0  0  0  0  0  0  0  0  0  0  0
   72.5573    2.8177   -0.3348 C   0  0  0  0  0  0  0  0  0  0  0  0
   73.8180    3.4977   -0.4181 C   0  0  0  0  0  0  0  0  0  0  0  0
   74.7804    2.5495   -0.3117 C   0  0  0  0  0  0  0  0  0  0  0  0
   74.1034    1.2933   -0.1636 C   0  0  0  0  0  0  0  0  0  0  0  0
   72.7623    1.4789   -0.1808 N   0  0  0  0  0  0  0  0  0  0  0  0
   74.7547    0.0566   -0.0212 C   0  0  0  0  0  0  0  0  0  0  0  0
   74.0978   -1.1769    0.1229 C   0  0  0  0  0  0  0  0  0  0  0  0
   74.7692   -2.4366    0.2673 C   0  0  0  0  0  0  0  0  0  0  0  0
   73.8025   -3.3801    0.3770 C   0  0  0  0  0  0  0  0  0  0  0  0
   72.5449   -2.6938    0.2991 C   0  0  0  0  0  0  0  0  0  0  0  0
   72.7559   -1.3559    0.1452 N   0  0  0  0  0  0  0  0  0  0  0  0
   71.3085   -3.3122    0.3704 C   0  0  0  0  0  0  0  0  0  0  0  0
   70.0747   -2.6881    0.3000 C   0  0  0  0  0  0  0  0  0  0  0  0
   69.8699   -1.3492    0.1485 N   0  0  0  0  0  0  0  0  0  0  0  0
   68.6957   -4.4282    0.4984 H   0  0  0  0  0  0  0  0  0  0  0  0
   66.7859   -2.5423    0.2878 H   0  0  0  0  0  0  0  0  0  0  0  0
   66.7976    2.6949   -0.2971 H   0  0  0  0  0  0  0  0  0  0  0  0
   68.7157    4.5713   -0.5176 H   0  0  0  0  0  0  0  0  0  0  0  0
   71.3261    4.5166   -0.5243 H   0  0  0  0  0  0  0  0  0  0  0  0
   73.9361    4.5570   -0.5414 H   0  0  0  0  0  0  0  0  0  0  0  0
   75.8461    2.6714   -0.3296 H   0  0  0  0  0  0  0  0  0  0  0  0
   75.8344   -2.5637    0.2809 H   0  0  0  0  0  0  0  0  0  0  0  0
   73.9159   -4.4400    0.4989 H   0  0  0  0  0  0  0  0  0  0  0  0
   71.3060   -4.3865    0.4931 H   0  0  0  0  0  0  0  0  0  0  0  0
   84.7684    0.0455   -0.0217 Zn  0  0  0  0  0  0  0  0  0  0  0  0
   82.2738   -3.3924    0.3817 C   0  0  0  0  0  0  0  0  0  0  0  0
   81.3092   -2.4470    0.2705 C   0  0  0  0  0  0  0  0  0  0  0  0
   81.9832   -1.1892    0.1227 C   0  0  0  0  0  0  0  0  0  0  0  0
   81.3291    0.0457   -0.0227 C   0  0  0  0  0  0  0  0  0  0  0  0
   81.9835    1.2804   -0.1677 C   0  0  0  0  0  0  0  0  0  0  0  0
   81.3096    2.5383   -0.3157 C   0  0  0  0  0  0  0  0  0  0  0  0
   82.2744    3.4836   -0.4266 C   0  0  0  0  0  0  0  0  0  0  0  0
   83.5333    2.8002   -0.3459 C   0  0  0  0  0  0  0  0  0  0  0  0
   83.3250    1.4623   -0.1887 N   0  0  0  0  0  0  0  0  0  0  0  0
   84.7687    3.4209   -0.4185 C   0  0  0  0  0  0  0  0  0  0  0  0
   86.0039    2.8000   -0.3449 C   0  0  0  0  0  0  0  0  0  0  0  0
   87.2628    3.4835   -0.4247 C   0  0  0  0  0  0  0  0  0  0  0  0
   88.2276    2.5382   -0.3132 C   0  0  0  0  0  0  0  0  0  0  0  0
   87.5537    1.2803   -0.1657 C   0  0  0  0  0  0  0  0  0  0  0  0
   86.2121    1.4621   -0.1875 N   0  0  0  0  0  0  0  0  0  0  0  0
   88.2080    0.0454   -0.0208 C   0  0  0  0  0  0  0  0  0  0  0  0
   87.5534   -1.1894    0.1239 C   0  0  0  0  0  0  0  0  0  0  0  0
   88.2272   -2.4474    0.2714 C   0  0  0  0  0  0  0  0  0  0  0  0
   87.2623   -3.3927    0.3820 C   0  0  0  0  0  0  0  0  0  0  0  0
   86.0034   -2.7091    0.3017 C   0  0  0  0  0  0  0  0  0  0  0  0
   86.2119   -1.3712    0.1450 N   0  0  0  0  0  0  0  0  0  0  0  0
   84.7681   -3.3299    0.3744 C   0  0  0  0  0  0  0  0  0  0  0  0
   83.5329   -2.7091    0.3015 C   0  0  0  0  0  0  0  0  0  0  0  0
   83.3248   -1.3712    0.1443 N   0  0  0  0  0  0  0  0  0  0  0  0
   82.1581   -4.4517    0.5063 H   0  0  0  0  0  0  0  0  0  0  0  0
   80.2437   -2.5717    0.2851 H   0  0  0  0  0  0  0  0  0  0  0  0
   80.2442    2.6631   -0.3306 H   0  0  0  0  0  0  0  0  0  0  0  0
   82.1587    4.5430   -0.5511 H   0  0  0  0  0  0  0  0  0  0  0  0
   84.7688    4.4948   -0.5449 H   0  0  0  0  0  0  0  0  0  0  0  0
   87.3784    4.5429   -0.5493 H   0  0  0  0  0  0  0  0  0  0  0  0
   89.2930    2.6631   -0.3274 H   0  0  0  0  0  0  0  0  0  0  0  0
   89.2926   -2.5723    0.2862 H   0  0  0  0  0  0  0  0  0  0  0  0
   87.3778   -4.4521    0.5060 H   0  0  0  0  0  0  0  0  0  0  0  0
   84.7681   -4.4039    0.5003 H   0  0  0  0  0  0  0  0  0  0  0  0
   98.2231    0.0461   -0.0228 Zn  0  0  0  0  0  0  0  0  0  0  0  0
   95.7286   -3.3920    0.3782 C   0  0  0  0  0  0  0  0  0  0  0  0
   94.7637   -2.4468    0.2674 C   0  0  0  0  0  0  0  0  0  0  0  0
   95.4375   -1.1887    0.1210 C   0  0  0  0  0  0  0  0  0  0  0  0
   94.7830    0.0463   -0.0224 C   0  0  0  0  0  0  0  0  0  0  0  0
   95.4377    1.2812   -0.1659 C   0  0  0  0  0  0  0  0  0  0  0  0
   94.7641    2.5395   -0.3115 C   0  0  0  0  0  0  0  0  0  0  0  0
   95.7291    3.4846   -0.4218 C   0  0  0  0  0  0  0  0  0  0  0  0
   96.9879    2.8007   -0.3434 C   0  0  0  0  0  0  0  0  0  0  0  0
   96.7793    1.4627   -0.1879 N   0  0  0  0  0  0  0  0  0  0  0  0
   98.2233    3.4212   -0.4168 C   0  0  0  0  0  0  0  0  0  0  0  0
   99.4587    2.8003   -0.3454 C   0  0  0  0  0  0  0  0  0  0  0  0
  100.7176    3.4839   -0.4260 C   0  0  0  0  0  0  0  0  0  0  0  0
  101.6825    2.5388   -0.3155 C   0  0  0  0  0  0  0  0  0  0  0  0
  101.0088    1.2807   -0.1676 C   0  0  0  0  0  0  0  0  0  0  0  0
   99.6672    1.4624   -0.1887 N   0  0  0  0  0  0  0  0  0  0  0  0
  101.6634    0.0460   -0.0220 C   0  0  0  0  0  0  0  0  0  0  0  0
  101.0086   -1.1887    0.1230 C   0  0  0  0  0  0  0  0  0  0  0  0
  101.6821   -2.4467    0.2715 C   0  0  0  0  0  0  0  0  0  0  0  0
  100.7171   -3.3918    0.3821 C   0  0  0  0  0  0  0  0  0  0  0  0
   99.4583   -2.7081    0.3008 C   0  0  0  0  0  0  0  0  0  0  0  0
   99.6669   -1.3703    0.1435 N   0  0  0  0  0  0  0  0  0  0  0  0
   98.2229   -3.3289    0.3727 C   0  0  0  0  0  0  0  0  0  0  0  0
   96.9875   -2.7083    0.2990 C   0  0  0  0  0  0  0  0  0  0  0  0
   96.7791   -1.3704    0.1426 N   0  0  0  0  0  0  0  0  0  0  0  0
   95.6131   -4.4516    0.5019 H   0  0  0  0  0  0  0  0  0  0  0  0
   93.6983   -2.5719    0.2814 H   0  0  0  0  0  0  0  0  0  0  0  0
   93.6987    2.6647   -0.3251 H   0  0  0  0  0  0  0  0  0  0  0  0
   95.6137    4.5443   -0.5445 H   0  0  0  0  0  0  0  0  0  0  0  0
   98.2234    4.4953   -0.5420 H   0  0  0  0  0  0  0  0  0  0  0  0
  100.8330    4.5434   -0.5503 H   0  0  0  0  0  0  0  0  0  0  0  0
  102.7479    2.6637   -0.3305 H   0  0  0  0  0  0  0  0  0  0  0  0
  102.7475   -2.5717    0.2869 H   0  0  0  0  0  0  0  0  0  0  0  0
  100.8324   -4.4512    0.5070 H   0  0  0  0  0  0  0  0  0  0  0  0
   98.2229   -4.4028    0.4988 H   0  0  0  0  0  0  0  0  0  0  0  0
  111.6792    0.0460   -0.0221 Zn  0  0  0  0  0  0  0  0  0  0  0  0
  109.1846   -3.3911    0.3855 C   0  0  0  0  0  0  0  0  0  0  0  0
  108.2197   -2.4460    0.2745 C   0  0  0  0  0  0  0  0  0  0  0  0
  108.8934   -1.1882    0.1250 C   0  0  0  0  0  0  0  0  0  0  0  0
  108.2387    0.0465   -0.0212 C   0  0  0  0  0  0  0  0  0  0  0  0
  108.8936    1.2809   -0.1677 C   0  0  0  0  0  0  0  0  0  0  0  0
  108.2202    2.5390   -0.3166 C   0  0  0  0  0  0  0  0  0  0  0  0
  109.1854    3.4838   -0.4286 C   0  0  0  0  0  0  0  0  0  0  0  0
  110.4441    2.8000   -0.3477 C   0  0  0  0  0  0  0  0  0  0  0  0
  110.2353    1.4623   -0.1893 N   0  0  0  0  0  0  0  0  0  0  0  0
  111.6795    3.4204   -0.4208 C   0  0  0  0  0  0  0  0  0  0  0  0
  112.9149    2.7998   -0.3468 C   0  0  0  0  0  0  0  0  0  0  0  0
  114.1738    3.4835   -0.4264 C   0  0  0  0  0  0  0  0  0  0  0  0
  115.1387    2.5385   -0.3142 C   0  0  0  0  0  0  0  0  0  0  0  0
  114.4650    1.2805   -0.1666 C   0  0  0  0  0  0  0  0  0  0  0  0
  113.1234    1.4621   -0.1889 N   0  0  0  0  0  0  0  0  0  0  0  0
  115.1197    0.0457   -0.0212 C   0  0  0  0  0  0  0  0  0  0  0  0
  114.4648   -1.1889    0.1235 C   0  0  0  0  0  0  0  0  0  0  0  0
  115.1382   -2.4471    0.2712 C   0  0  0  0  0  0  0  0  0  0  0  0
  114.1731   -3.3921    0.3821 C   0  0  0  0  0  0  0  0  0  0  0  0
  112.9143   -2.7082    0.3019 C   0  0  0  0  0  0  0  0  0  0  0  0
  113.1231   -1.3704    0.1447 N   0  0  0  0  0  0  0  0  0  0  0  0
  111.6789   -3.3285    0.3756 C   0  0  0  0  0  0  0  0  0  0  0  0
  110.4435   -2.7077    0.3035 C   0  0  0  0  0  0  0  0  0  0  0  0
  110.2350   -1.3700    0.1456 N   0  0  0  0  0  0  0  0  0  0  0  0
  109.0692   -4.4504    0.5111 H   0  0  0  0  0  0  0  0  0  0  0  0
  107.1543   -2.5708    0.2903 H   0  0  0  0  0  0  0  0  0  0  0  0
  107.1548    2.6642   -0.3313 H   0  0  0  0  0  0  0  0  0  0  0  0
  109.0701    4.5431   -0.5541 H   0  0  0  0  0  0  0  0  0  0  0  0
  111.6797    4.4942   -0.5479 H   0  0  0  0  0  0  0  0  0  0  0  0
  114.2893    4.5429   -0.5510 H   0  0  0  0  0  0  0  0  0  0  0  0
  116.2041    2.6636   -0.3280 H   0  0  0  0  0  0  0  0  0  0  0  0
  116.2036   -2.5723    0.2859 H   0  0  0  0  0  0  0  0  0  0  0  0
  114.2883   -4.4515    0.5065 H   0  0  0  0  0  0  0  0  0  0  0  0
  111.6787   -4.4024    0.5020 H   0  0  0  0  0  0  0  0  0  0  0  0
  125.1352    0.0461   -0.0213 Zn  0  0  0  0  0  0  0  0  0  0  0  0
  122.6409   -3.3913    0.3851 C   0  0  0  0  0  0  0  0  0  0  0  0
  121.6760   -2.4464    0.2727 C   0  0  0  0  0  0  0  0  0  0  0  0
  122.3496   -1.1884    0.1242 C   0  0  0  0  0  0  0  0  0  0  0  0
  121.6950    0.0462   -0.0218 C   0  0  0  0  0  0  0  0  0  0  0  0
  122.3497    1.2809   -0.1670 C   0  0  0  0  0  0  0  0  0  0  0  0
  121.6761    2.5390   -0.3149 C   0  0  0  0  0  0  0  0  0  0  0  0
  122.6411    3.4839   -0.4271 C   0  0  0  0  0  0  0  0  0  0  0  0
  123.8999    2.8001   -0.3475 C   0  0  0  0  0  0  0  0  0  0  0  0
  123.6913    1.4624   -0.1891 N   0  0  0  0  0  0  0  0  0  0  0  0
  125.1353    3.4204   -0.4231 C   0  0  0  0  0  0  0  0  0  0  0  0
  126.3707    2.7997   -0.3506 C   0  0  0  0  0  0  0  0  0  0  0  0
  127.6296    3.4830   -0.4335 C   0  0  0  0  0  0  0  0  0  0  0  0
  128.5945    2.5380   -0.3206 C   0  0  0  0  0  0  0  0  0  0  0  0
  127.9207    1.2805   -0.1691 C   0  0  0  0  0  0  0  0  0  0  0  0
  126.5791    1.4622   -0.1904 N   0  0  0  0  0  0  0  0  0  0  0  0
  128.5753    0.0461   -0.0210 C   0  0  0  0  0  0  0  0  0  0  0  0
  127.9207   -1.1884    0.1266 C   0  0  0  0  0  0  0  0  0  0  0  0
  128.5943   -2.4461    0.2771 C   0  0  0  0  0  0  0  0  0  0  0  0
  127.6294   -3.3911    0.3888 C   0  0  0  0  0  0  0  0  0  0  0  0
  126.3705   -2.7077    0.3065 C   0  0  0  0  0  0  0  0  0  0  0  0
  126.5791   -1.3701    0.1474 N   0  0  0  0  0  0  0  0  0  0  0  0
  125.1351   -3.3283    0.3792 C   0  0  0  0  0  0  0  0  0  0  0  0
  123.8998   -2.7077    0.3049 C   0  0  0  0  0  0  0  0  0  0  0  0
  123.6912   -1.3700    0.1465 N   0  0  0  0  0  0  0  0  0  0  0  0
  122.5255   -4.4506    0.5106 H   0  0  0  0  0  0  0  0  0  0  0  0
  120.6105   -2.5714    0.2870 H   0  0  0  0  0  0  0  0  0  0  0  0
  120.6107    2.6642   -0.3286 H   0  0  0  0  0  0  0  0  0  0  0  0
  122.5258    4.5433   -0.5518 H   0  0  0  0  0  0  0  0  0  0  0  0
  125.1354    4.4941   -0.5513 H   0  0  0  0  0  0  0  0  0  0  0  0
  127.7451    4.5420   -0.5609 H   0  0  0  0  0  0  0  0  0  0  0  0
  129.6599    2.6628   -0.3362 H   0  0  0  0  0  0  0  0  0  0  0  0
  129.6598   -2.5710    0.2929 H   0  0  0  0  0  0  0  0  0  0  0  0
  127.7448   -4.4503    0.5150 H   0  0  0  0  0  0  0  0  0  0  0  0
  125.1351   -4.4021    0.5063 H   0  0  0  0  0  0  0  0  0  0  0  0
  138.5898    0.0482   -0.0216 Zn  0  0  0  0  0  0  0  0  0  0  0  0
  136.0956   -3.3895    0.3852 C   0  0  0  0  0  0  0  0  0  0  0  0
  135.1308   -2.4443    0.2738 C   0  0  0  0  0  0  0  0  0  0  0  0
  135.8047   -1.1865    0.1249 C   0  0  0  0  0  0  0  0  0  0  0  0
  135.1502    0.0482   -0.0213 C   0  0  0  0  0  0  0  0  0  0  0  0
  135.8046    1.2828   -0.1680 C   0  0  0  0  0  0  0  0  0  0  0  0
  135.1308    2.5406   -0.3175 C   0  0  0  0  0  0  0  0  0  0  0  0
  136.0956    3.4857   -0.4299 C   0  0  0  0  0  0  0  0  0  0  0  0
  137.3545    2.8024   -0.3485 C   0  0  0  0  0  0  0  0  0  0  0  0
  137.1462    1.4647   -0.1896 N   0  0  0  0  0  0  0  0  0  0  0  0
  138.5898    3.4232   -0.4218 C   0  0  0  0  0  0  0  0  0  0  0  0
  139.8251    2.8026   -0.3476 C   0  0  0  0  0  0  0  0  0  0  0  0
  141.0841    3.4859   -0.4280 C   0  0  0  0  0  0  0  0  0  0  0  0
  142.0488    2.5407   -0.3158 C   0  0  0  0  0  0  0  0  0  0  0  0
  141.3748    1.2830   -0.1673 C   0  0  0  0  0  0  0  0  0  0  0  0
  140.0332    1.4649   -0.1890 N   0  0  0  0  0  0  0  0  0  0  0  0
  142.0290    0.0482   -0.0218 C   0  0  0  0  0  0  0  0  0  0  0  0
  141.3747   -1.1866    0.1241 C   0  0  0  0  0  0  0  0  0  0  0  0
  142.0487   -2.4443    0.2724 C   0  0  0  0  0  0  0  0  0  0  0  0
  141.0840   -3.3896    0.3840 C   0  0  0  0  0  0  0  0  0  0  0  0
  139.8250   -2.7063    0.3036 C   0  0  0  0  0  0  0  0  0  0  0  0
  140.0332   -1.3685    0.1458 N   0  0  0  0  0  0  0  0  0  0  0  0
  138.5897   -3.3270    0.3770 C   0  0  0  0  0  0  0  0  0  0  0  0
  137.3545   -2.7061    0.3040 C   0  0  0  0  0  0  0  0  0  0  0  0
  137.1462   -1.3683    0.1461 N   0  0  0  0  0  0  0  0  0  0  0  0
  135.9800   -4.4488    0.5104 H   0  0  0  0  0  0  0  0  0  0  0  0
  134.0653   -2.5691    0.2889 H   0  0  0  0  0  0  0  0  0  0  0  0
  134.0654    2.6654   -0.3325 H   0  0  0  0  0  0  0  0  0  0  0  0
  135.9800    4.5449   -0.5558 H   0  0  0  0  0  0  0  0  0  0  0  0
  138.5897    4.4969   -0.5494 H   0  0  0  0  0  0  0  0  0  0  0  0
  141.1998    4.5452   -0.5534 H   0  0  0  0  0  0  0  0  0  0  0  0
  143.1143    2.6654   -0.3302 H   0  0  0  0  0  0  0  0  0  0  0  0
  143.1141   -2.5691    0.2872 H   0  0  0  0  0  0  0  0  0  0  0  0
  141.1997   -4.4489    0.5090 H   0  0  0  0  0  0  0  0  0  0  0  0
  138.5897   -4.4009    0.5035 H   0  0  0  0  0  0  0  0  0  0  0  0
  152.0418    0.0157   -0.0199 Zn  0  0  0  0  0  0  0  0  0  0  0  0
  149.5320   -3.4138    0.3600 C   0  0  0  0  0  0  0  0  0  0  0  0
  148.5718   -2.4631    0.2554 C   0  0  0  0  0  0  0  0  0  0  0  0
  149.2518   -1.2076    0.1152 C   0  0  0  0  0  0  0  0  0  0  0  0
  148.6034    0.0310   -0.0233 C   0  0  0  0  0  0  0  0  0  0  0  0
  149.2630    1.2638   -0.1609 C   0  0  0  0  0  0  0  0  0  0  0  0
  148.5945    2.5254   -0.3026 C   0  0  0  0  0  0  0  0  0  0  0  0
  149.5634    3.4674   -0.4048 C   0  0  0  0  0  0  0  0  0  0  0  0
  150.8194    2.7784   -0.3252 C   0  0  0  0  0  0  0  0  0  0  0  0
  150.6053    1.4402   -0.1780 N   0  0  0  0  0  0  0  0  0  0  0  0
  152.0573    3.3949   -0.3882 C   0  0  0  0  0  0  0  0  0  0  0  0
  153.2896    2.7682   -0.3150 C   0  0  0  0  0  0  0  0  0  0  0  0
  154.5519    3.4466   -0.3846 C   0  0  0  0  0  0  0  0  0  0  0  0
  155.5120    2.4961   -0.2790 C   0  0  0  0  0  0  0  0  0  0  0  0
  154.8318    1.2399   -0.1454 C   0  0  0  0  0  0  0  0  0  0  0  0
  153.4911    1.4281   -0.1691 N   0  0  0  0  0  0  0  0  0  0  0  0
  155.4799    0.0003   -0.0158 C   0  0  0  0  0  0  0  0  0  0  0  0
  154.8206   -1.2333    0.1121 C   0  0  0  0  0  0  0  0  0  0  0  0
  155.4893   -2.4954    0.2473 C   0  0  0  0  0  0  0  0  0  0  0  0
  154.5206   -3.4375    0.3507 C   0  0  0  0  0  0  0  0  0  0  0  0
  153.2645   -2.7478    0.2783 C   0  0  0  0  0  0  0  0  0  0  0  0
  153.4783   -1.4097    0.1327 N   0  0  0  0  0  0  0  0  0  0  0  0
  152.0264   -3.3635    0.3491 C   0  0  0  0  0  0  0  0  0  0  0  0
  150.7943   -2.7360    0.2831 C   0  0  0  0  0  0  0  0  0  0  0  0
  150.5924   -1.3961    0.1350 N   0  0  0  0  0  0  0  0  0  0  0  0
  149.4113   -4.4734    0.4779 H   0  0  0  0  0  0  0  0  0  0  0  0
  147.5058   -2.5829    0.2698 H   0  0  0  0  0  0  0  0  0  0  0  0
  147.5297    2.6546   -0.3195 H   0  0  0  0  0  0  0  0  0  0  0  0
  149.4525    4.5280   -0.5227 H   0  0  0  0  0  0  0  0  0  0  0  0
  152.0622    4.4698   -0.5059 H   0  0  0  0  0  0  0  0  0  0  0  0
  154.6728    4.5066   -0.4994 H   0  0  0  0  0  0  0  0  0  0  0  0
  156.5781    2.6160   -0.2900 H   0  0  0  0  0  0  0  0  0  0  0  0
  156.5543   -2.6248    0.2604 H   0  0  0  0  0  0  0  0  0  0  0  0
  154.6318   -4.4984    0.4656 H   0  0  0  0  0  0  0  0  0  0  0  0
  152.0216   -4.4383    0.4674 H   0  0  0  0  0  0  0  0  0  0  0  0
  2  3  2  0  0  0  0
  3  4  1  0  0  0  0
  4  5  4  0  0  0  0
  5  6  4  0  0  0  0
  6  7  1  0  0  0  0
  7  8  2  0  0  0  0
  8  9  1  0  0  0  0
  1 10  1  0  0  0  0
  6 10  4  0  0  0  0
  9 10  4  0  0  0  0
  9 11  4  0  0  0  0
 11 12  4  0  0  0  0
 12 13  1  0  0  0  0
 13 14  2  0  0  0  0
 14 15  1  0  0  0  0
  1 16  1  0  0  0  0
 12 16  4  0  0  0  0
 15 16  4  0  0  0  0
 15 17  4  0  0  0  0
 17 18  4  0  0  0  0
 18 19  1  0  0  0  0
 19 20  2  0  0  0  0
 20 21  1  0  0  0  0
  1 22  1  0  0  0  0
 18 22  4  0  0  0  0
 21 22  4  0  0  0  0
 21 23  4  0  0  0  0
  2 24  1  0  0  0  0
 23 24  4  0  0  0  0
  1 25  1  0  0  0  0
  4 25  4  0  0  0  0
 24 25  4  0  0  0  0
  2 26  1  0  0  0  0
  3 27  1  0  0  0  0
  7 28  1  0  0  0  0
  8 29  1  0  0  0  0
 11 30  1  0  0  0  0
 13 31  1  0  0  0  0
 14 32  1  0  0  0  0
 17 33  1  0  0  0  0
 19 34  1  0  0  0  0
 20 35  1  0  0  0  0
 23 36  1  0  0  0  0
 38 39  2  0  0  0  0
 39 40  1  0  0  0  0
 40 41  4  0  0  0  0
 41 42  4  0  0  0  0
 42 43  1  0  0  0  0
 43 44  2  0  0  0  0
 44 45  1  0  0  0  0
 37 46  1  0  0  0  0
 42 46  4  0  0  0  0
 45 46  4  0  0  0  0
 45 47  4  0  0  0  0
 47 48  4  0  0  0  0
 48 49  1  0  0  0  0
 49 50  2  0  0  0  0
 50 51  1  0  0  0  0
 37 52  1  0  0  0  0
 48 52  4  0  0  0  0
 51 52  4  0  0  0  0
 51 53  4  0  0  0  0
 53 54  4  0  0  0  0
 54 55  1  0  0  0  0
 55 56  2  0  0  0  0
 56 57  1  0  0  0  0
 37 58  1  0  0  0  0
 54 58  4  0  0  0  0
 57 58  4  0  0  0  0
 57 59  4  0  0  0  0
 38 60  1  0  0  0  0
 59 60  4  0  0  0  0
 37 61  1  0  0  0  0
 40 61  4  0  0  0  0
 60 61  4  0  0  0  0
 38 62  1  0  0  0  0
 39 63  1  0  0  0  0
 43 64  1  0  0  0  0
 44 65  1  0  0  0  0
 47 66  1  0  0  0  0
 49 67  1  0  0  0  0
 50 68  1  0  0  0  0
 53 69  1  0  0  0  0
 55 70  1  0  0  0  0
 56 71  1  0  0  0  0
 59 72  1  0  0  0  0
  5 73  1  0  0  0  0
 73 74  3  0  0  0  0
 74 75  4  0  0  0  0
 75 76  3  0  0  0  0
 77 78  3  0  0  0  0
 78 79  4  0  0  0  0
 79 80  3  0  0  0  0
 81 82  3  0  0  0  0
 82 83  4  0  0  0  0
 83 84  3  0  0  0  0
 85 86  3  0  0  0  0
 86 87  4  0  0  0  0
 87 88  3  0  0  0  0
 89 90  3  0  0  0  0
 90 91  4  0  0  0  0
 91 92  3  0  0  0  0
 93 94  3  0  0  0  0
 94 95  4  0  0  0  0
 95 96  3  0  0  0  0
 97 98  3  0  0  0  0
 98 99  4  0  0  0  0
 99100  3  0  0  0  0
101102  3  0  0  0  0
102103  4  0  0  0  0
 41104  1  0  0  0  0
103104  3  0  0  0  0
106107  2  0  0  0  0
107108  1  0  0  0  0
 76109  1  0  0  0  0
108109  4  0  0  0  0
109110  4  0  0  0  0
110111  1  0  0  0  0
111112  2  0  0  0  0
112113  1  0  0  0  0
105114  1  0  0  0  0
110114  4  0  0  0  0
113114  4  0  0  0  0
113115  4  0  0  0  0
115116  4  0  0  0  0
116117  1  0  0  0  0
117118  2  0  0  0  0
118119  1  0  0  0  0
105120  1  0  0  0  0
116120  4  0  0  0  0
119120  4  0  0  0  0
 77121  1  0  0  0  0
119121  4  0  0  0  0
121122  4  0  0  0  0
122123  1  0  0  0  0
123124  2  0  0  0  0
124125  1  0  0  0  0
105126  1  0  0  0  0
122126  4  0  0  0  0
125126  4  0  0  0  0
125127  4  0  0  0  0
106128  1  0  0  0  0
127128  4  0  0  0  0
105129  1  0  0  0  0
108129  4  0  0  0  0
128129  4  0  0  0  0
106130  1  0  0  0  0
107131  1  0  0  0  0
111132  1  0  0  0  0
112133  1  0  0  0  0
115134  1  0  0  0  0
117135  1  0  0  0  0
118136  1  0  0  0  0
123137  1  0  0  0  0
124138  1  0  0  0  0
127139  1  0  0  0  0
141142  2  0  0  0  0
142143  1  0  0  0  0
 80144  1  0  0  0  0
143144  4  0  0  0  0
144145  4  0  0  0  0
145146  1  0  0  0  0
146147  2  0  0  0  0
147148  1  0  0  0  0
140149  1  0  0  0  0
145149  4  0  0  0  0
148149  4  0  0  0  0
148150  4  0  0  0  0
150151  4  0  0  0  0
151152  1  0  0  0  0
152153  2  0  0  0  0
153154  1  0  0  0  0
140155  1  0  0  0  0
151155  4  0  0  0  0
154155  4  0  0  0  0
 81156  1  0  0  0  0
154156  4  0  0  0  0
156157  4  0  0  0  0
157158  1  0  0  0  0
158159  2  0  0  0  0
159160  1  0  0  0  0
140161  1  0  0  0  0
157161  4  0  0  0  0
160161  4  0  0  0  0
160162  4  0  0  0  0
141163  1  0  0  0  0
162163  4  0  0  0  0
140164  1  0  0  0  0
143164  4  0  0  0  0
163164  4  0  0  0  0
141165  1  0  0  0  0
142166  1  0  0  0  0
146167  1  0  0  0  0
147168  1  0  0  0  0
150169  1  0  0  0  0
152170  1  0  0  0  0
153171  1  0  0  0  0
158172  1  0  0  0  0
159173  1  0  0  0  0
162174  1  0  0  0  0
176177  2  0  0  0  0
177178  1  0  0  0  0
 84179  1  0  0  0  0
178179  4  0  0  0  0
179180  4  0  0  0  0
180181  1  0  0  0  0
181182  2  0  0  0  0
182183  1  0  0  0  0
175184  1  0  0  0  0
180184  4  0  0  0  0
183184  4  0  0  0  0
183185  4  0  0  0  0
185186  4  0  0  0  0
186187  1  0  0  0  0
187188  2  0  0  0  0
188189  1  0  0  0  0
175190  1  0  0  0  0
186190  4  0  0  0  0
189190  4  0  0  0  0
 85191  1  0  0  0  0
189191  4  0  0  0  0
191192  4  0  0  0  0
192193  1  0  0  0  0
193194  2  0  0  0  0
194195  1  0  0  0  0
175196  1  0  0  0  0
192196  4  0  0  0  0
195196  4  0  0  0  0
195197  4  0  0  0  0
176198  1  0  0  0  0
197198  4  0  0  0  0
175199  1  0  0  0  0
178199  4  0  0  0  0
198199  4  0  0  0  0
176200  1  0  0  0  0
177201  1  0  0  0  0
181202  1  0  0  0  0
182203  1  0  0  0  0
185204  1  0  0  0  0
187205  1  0  0  0  0
188206  1  0  0  0  0
193207  1  0  0  0  0
194208  1  0  0  0  0
197209  1  0  0  0  0
211212  2  0  0  0  0
212213  1  0  0  0  0
 88214  1  0  0  0  0
213214  4  0  0  0  0
214215  4  0  0  0  0
215216  1  0  0  0  0
216217  2  0  0  0  0
217218  1  0  0  0  0
210219  1  0  0  0  0
215219  4  0  0  0  0
218219  4  0  0  0  0
218220  4  0  0  0  0
220221  4  0  0  0  0
221222  1  0  0  0  0
222223  2  0  0  0  0
223224  1  0  0  0  0
210225  1  0  0  0  0
221225  4  0  0  0  0
224225  4  0  0  0  0
 89226  1  0  0  0  0
224226  4  0  0  0  0
226227  4  0  0  0  0
227228  1  0  0  0  0
228229  2  0  0  0  0
229230  1  0  0  0  0
210231  1  0  0  0  0
227231  4  0  0  0  0
230231  4  0  0  0  0
230232  4  0  0  0  0
211233  1  0  0  0  0
232233  4  0  0  0  0
210234  1  0  0  0  0
213234  4  0  0  0  0
233234  4  0  0  0  0
211235  1  0  0  0  0
212236  1  0  0  0  0
216237  1  0  0  0  0
217238  1  0  0  0  0
220239  1  0  0  0  0
222240  1  0  0  0  0
223241  1  0  0  0  0
228242  1  0  0  0  0
229243  1  0  0  0  0
232244  1  0  0  0  0
246247  2  0  0  0  0
247248  1  0  0  0  0
 92249  1  0  0  0  0
248249  4  0  0  0  0
249250  4  0  0  0  0
250251  1  0  0  0  0
251252  2  0  0  0  0
252253  1  0  0  0  0
245254  1  0  0  0  0
250254  4  0  0  0  0
253254  4  0  0  0  0
253255  4  0  0  0  0
255256  4  0  0  0  0
256257  1  0  0  0  0
257258  2  0  0  0  0
258259  1  0  0  0  0
245260  1  0  0  0  0
256260  4  0  0  0  0
259260  4  0  0  0  0
 93261  1  0  0  0  0
259261  4  0  0  0  0
261262  4  0  0  0  0
262263  1  0  0  0  0
263264  2  0  0  0  0
264265  1  0  0  0  0
245266  1  0  0  0  0
262266  4  0  0  0  0
265266  4  0  0  0  0
265267  4  0  0  0  0
246268  1  0  0  0  0
267268  4  0  0  0  0
245269  1  0  0  0  0
248269  4  0  0  0  0
268269  4  0  0  0  0
246270  1  0  0  0  0
247271  1  0  0  0  0
251272  1  0  0  0  0
252273  1  0  0  0  0
255274  1  0  0  0  0
257275  1  0  0  0  0
258276  1  0  0  0  0
263277  1  0  0  0  0
264278  1  0  0  0  0
267279  1  0  0  0  0
281282  2  0  0  0  0
282283  1  0  0  0  0
 96284  1  0  0  0  0
283284  4  0  0  0  0
284285  4  0  0  0  0
285286  1  0  0  0  0
286287  2  0  0  0  0
287288  1  0  0  0  0
280289  1  0  0  0  0
285289  4  0  0  0  0
288289  4  0  0  0  0
288290  4  0  0  0  0
290291  4  0  0  0  0
291292  1  0  0  0  0
292293  2  0  0  0  0
293294  1  0  0  0  0
280295  1  0  0  0  0
291295  4  0  0  0  0
294295  4  0  0  0  0
 97296  1  0  0  0  0
294296  4  0  0  0  0
296297  4  0  0  0  0
297298  1  0  0  0  0
298299  2  0  0  0  0
299300  1  0  0  0  0
280301  1  0  0  0  0
297301  4  0  0  0  0
300301  4  0  0  0  0
300302  4  0  0  0  0
281303  1  0  0  0  0
302303  4  0  0  0  0
280304  1  0  0  0  0
283304  4  0  0  0  0
303304  4  0  0  0  0
281305  1  0  0  0  0
282306  1  0  0  0  0
286307  1  0  0  0  0
287308  1  0  0  0  0
290309  1  0  0  0  0
292310  1  0  0  0  0
293311  1  0  0  0  0
298312  1  0  0  0  0
299313  1  0  0  0  0
302314  1  0  0  0  0
316317  2  0  0  0  0
317318  1  0  0  0  0
100319  1  0  0  0  0
318319  4  0  0  0  0
319320  4  0  0  0  0
320321  1  0  0  0  0
321322  2  0  0  0  0
322323  1  0  0  0  0
315324  1  0  0  0  0
320324  4  0  0  0  0
323324  4  0  0  0  0
323325  4  0  0  0  0
325326  4  0  0  0  0
326327  1  0  0  0  0
327328  2  0  0  0  0
328329  1  0  0  0  0
315330  1  0  0  0  0
326330  4  0  0  0  0
329330  4  0  0  0  0
101331  1  0  0  0  0
329331  4  0  0  0  0
331332  4  0  0  0  0
332333  1  0  0  0  0
333334  2  0  0  0  0
334335  1  0  0  0  0
315336  1  0  0  0  0
332336  4  0  0  0  0
335336  4  0  0  0  0
335337  4  0  0  0  0
316338  1  0  0  0  0
337338  4  0  0  0  0
315339  1  0  0  0  0
318339  4  0  0  0  0
338339  4  0  0  0  0
316340  1  0  0  0  0
317341  1  0  0  0  0
321342  1  0  0  0  0
322343  1  0  0  0  0
325344  1  0  0  0  0
327345  1  0  0  0  0
328346  1  0  0  0  0
333347  1  0  0  0  0
334348  1  0  0  0  0
337349  1  0  0  0  0
M  END
