271

Co 43.482769 0.008516 -0.006426
C 45.978419 -3.401200 0.074319
C 46.930704 -2.441925 0.037437
C 46.240595 -1.188591 0.010346
C 46.905225 0.039157 -0.010687
C 46.218735 1.254869 -0.000236
C 46.886272 2.520532 0.018390
C 45.916953 3.462813 0.049521
C 44.668538 2.762702 0.041812
N 44.864522 1.406724 0.012742
C 43.448609 3.403496 0.045724
C 42.242669 2.738741 0.001551
C 40.977437 3.412292 -0.032573
C 40.032202 2.449773 -0.095781
C 40.726983 1.195319 -0.091419
N 42.079612 1.381802 -0.033433
C 40.082248 -0.022422 -0.123630
C 40.748707 -1.228135 -0.081491
C 40.076480 -2.494804 -0.075714
C 41.038839 -3.439748 -0.005892
C 42.291804 -2.743420 0.022285
N 42.104460 -1.389893 -0.022766
C 43.509453 -3.386148 0.070391
C 44.717680 -2.723647 0.061804
N 44.889333 -1.364589 0.023798
H 46.095941 -4.466953 0.103553
H 47.998073 -2.547045 0.031461
H 47.951602 2.644681 0.012028
H 46.015350 4.530657 0.072114
H 43.438857 4.482583 0.070508
H 40.856757 4.478132 -0.013541
H 38.965115 2.552015 -0.138066
H 39.003989 -0.032271 -0.169158
H 39.011370 -2.616443 -0.116404
H 40.937316 -4.507410 0.021334
H 43.519050 -4.465041 0.102535
Co 124.046666 0.039771 -0.004413
C 121.559278 3.402791 0.598222
C 120.604862 2.464802 0.404222
C 121.291872 1.227812 0.190164
C 120.624291 0.018188 -0.010964
C 121.307690 -1.187125 -0.182234
C 120.637116 -2.439642 -0.353827
C 121.604278 -3.375588 -0.484246
C 122.854356 -2.683748 -0.397704
N 122.661577 -1.340394 -0.207260
C 124.072406 -3.316291 -0.520348
C 125.279398 -2.653903 -0.469691
C 126.542282 -3.312650 -0.633287
C 127.489877 -2.355662 -0.532501
C 126.798883 -1.120693 -0.300650
N 125.446024 -1.311917 -0.268760
C 127.447315 0.080852 -0.112389
C 126.784315 1.261760 0.143634
C 127.460090 2.504885 0.376745
C 126.499733 3.428051 0.599019
C 125.244504 2.743460 0.492388
N 125.428574 1.416711 0.218502
C 124.028064 3.375952 0.627711
C 122.818286 2.730026 0.493259
N 122.643481 1.394605 0.240484
H 121.444296 4.451475 0.791998
H 119.537855 2.573745 0.406122
H 119.571467 -2.560448 -0.367510
H 121.503307 -4.433470 -0.629756
H 124.079574 -4.384285 -0.676832
H 126.659944 -4.365292 -0.803705
H 128.556327 -2.450562 -0.600209
H 128.525684 0.095184 -0.153888
H 128.525922 2.626722 0.368660
H 126.604014 4.474416 0.811589
H 124.020953 4.434942 0.836558
C 48.303231 0.050832 -0.024488
C 49.520732 0.057960 -0.027020
C 50.863244 0.063109 -0.030514
C 52.080912 0.063932 -0.033642
C 61.730875 0.055514 -0.021812
C 62.948741 0.052738 -0.022644
C 64.290900 0.051420 -0.023175
C 65.508777 0.049999 -0.022844
C 75.160111 0.043732 -0.013883
C 76.378073 0.043319 -0.014406
C 77.720375 0.042679 -0.016243
C 78.938344 0.041484 -0.016573
C 88.590914 0.051154 -0.016026
C 89.808900 0.048883 -0.016021
C 91.151216 0.047611 -0.016720
C 92.369171 0.045872 -0.014532
C 102.020696 0.038909 -0.024076
C 103.238567 0.037360 -0.024942
C 104.580754 0.035726 -0.024255
C 105.798613 0.031007 -0.022453
C 115.448415 0.006810 -0.034778
C 116.666030 0.006467 -0.034787
C 118.008637 0.008220 -0.030522
C 119.226123 0.011524 -0.023106
Co 56.905867 0.060389 -0.023867
C 54.434517 -3.349238 0.347078
C 53.474147 -2.403670 0.236817
C 54.153997 -1.151744 0.101831
C 53.478462 0.063286 -0.030514
C 54.156461 1.277300 -0.158478
C 53.479140 2.530564 -0.293512
C 54.441452 3.474916 -0.397050
C 55.694473 2.787576 -0.324066
N 55.508974 1.437756 -0.176427
C 56.909355 3.432367 -0.398967
C 58.122875 2.784346 -0.330242
C 59.377238 3.468355 -0.410407
C 60.337655 2.522244 -0.305017
C 59.657870 1.271302 -0.161469
N 58.305719 1.434626 -0.178090
C 60.333572 0.057087 -0.021764
C 59.655393 -1.155657 0.119029
C 60.332578 -2.407646 0.265806
C 59.370190 -3.351522 0.373217
C 58.117266 -2.665213 0.290260
N 58.302919 -1.316232 0.135043
C 56.902405 -3.310796 0.357960
C 55.688910 -2.664058 0.277656
N 55.506169 -1.314268 0.126184
H 54.326291 -4.409879 0.464460
H 52.407672 -2.517140 0.244143
H 52.412853 2.645629 -0.305154
H 54.335400 4.536017 -0.512332
H 56.910481 4.505238 -0.518436
H 59.485403 4.528658 -0.530838
H 61.404135 2.634914 -0.319672
H 61.398825 -2.522479 0.281450
H 59.476123 -4.411751 0.496386
H 56.901257 -4.383379 0.479962
Co 70.334243 0.046651 -0.019689
C 67.863647 -3.359940 0.383494
C 66.902863 -2.414885 0.272024
C 67.582212 -1.164316 0.123208
C 66.906059 0.049151 -0.021183
C 67.584044 1.261714 -0.164509
C 66.906659 2.513458 -0.312492
C 67.868910 3.457050 -0.423632
C 69.121945 2.770692 -0.342504
N 68.936496 1.422196 -0.183032
C 70.336809 3.415238 -0.419716
C 71.550574 2.768485 -0.343350
C 72.804589 3.453008 -0.424805
C 73.765501 2.508402 -0.310713
C 73.086396 1.257771 -0.161394
N 71.734118 1.419937 -0.182007
C 73.762722 0.044439 -0.016313
C 73.084465 -1.168305 0.125033
C 73.761710 -2.420345 0.271119
C 72.799383 -3.364174 0.379589
C 71.546396 -2.677665 0.299285
N 71.731980 -1.328859 0.142419
C 70.331601 -3.322473 0.375752
C 69.117757 -2.675679 0.301361
N 68.934395 -1.326867 0.142004
H 67.755799 -4.419640 0.509459
H 65.836408 -2.528011 0.286260
H 65.840390 2.628299 -0.326280
H 67.762708 4.517035 -0.548571
H 70.337751 4.487205 -0.547089
H 72.912183 4.512587 -0.552066
H 74.831932 2.621870 -0.323690
H 74.827968 -2.535268 0.285366
H 72.905392 -4.424410 0.502445
H 70.330804 -4.394651 0.501353
Co 83.764610 0.045672 -0.021766
C 81.300264 -3.365604 0.378770
C 80.337574 -2.422221 0.269535
C 81.014352 -1.170007 0.122915
C 80.335731 0.042454 -0.018666
C 81.011864 1.255995 -0.163459
C 80.332522 2.506583 -0.312271
C 81.293260 3.451436 -0.425849
C 82.547399 2.767093 -0.344842
N 82.364096 1.418470 -0.183897
C 83.761134 3.413772 -0.422238
C 84.976188 2.769523 -0.345125
C 86.228911 3.456487 -0.426201
C 87.191618 2.513681 -0.312332
C 86.514880 1.261734 -0.163352
N 85.162293 1.421323 -0.183949
C 87.193513 0.049672 -0.018598
C 86.517355 -1.164286 0.122785
C 87.196702 -2.415177 0.269033
C 86.235966 -3.360599 0.377858
C 84.981817 -2.676232 0.297302
N 85.165136 -1.327149 0.140308
C 83.768081 -3.323172 0.372597
C 82.553012 -2.678682 0.297726
N 82.366916 -1.330032 0.140353
H 81.194616 -4.425793 0.502520
H 79.271335 -2.537502 0.283657
H 79.266081 2.619910 -0.325253
H 81.185369 4.511065 -0.552333
H 83.760044 4.485694 -0.550020
H 86.334528 4.516313 -0.553031
H 88.257841 2.629164 -0.325265
H 88.263152 -2.528341 0.283071
H 86.343848 -4.420614 0.501062
H 83.769187 -4.395401 0.497803
Co 97.195140 0.042292 -0.019754
C 94.725513 -3.364983 0.381668
C 93.764403 -2.420019 0.272335
C 94.443223 -1.168937 0.125269
C 93.766574 0.044661 -0.016286
C 94.444562 1.257072 -0.161570
C 93.767095 2.508629 -0.310535
C 94.729262 3.451976 -0.424497
C 95.982355 2.765765 -0.343548
N 95.797027 1.417411 -0.182536
C 97.197017 3.410758 -0.420429
C 98.411013 2.764534 -0.343750
C 99.664949 3.449235 -0.424844
C 100.625966 2.504437 -0.313228
C 99.946954 1.253566 -0.165605
N 98.594719 1.415791 -0.184184
C 100.623397 0.040030 -0.023277
C 99.945650 -1.172753 0.119473
C 100.623303 -2.424562 0.265849
C 99.661240 -3.368279 0.377580
C 98.408056 -2.681950 0.298376
N 98.593226 -1.333307 0.139896
C 97.193321 -3.326814 0.375214
C 95.979396 -2.680187 0.300176
N 95.795535 -1.331280 0.142254
H 94.618172 -4.424970 0.505737
H 92.697987 -2.533503 0.286888
H 92.700827 2.623603 -0.323055
H 94.623052 4.511745 -0.551152
H 97.197560 4.482725 -0.547821
H 99.772493 4.509064 -0.550040
H 101.692398 2.617880 -0.326734
H 101.689590 -2.539400 0.278152
H 99.767697 -4.428294 0.501988
H 97.192645 -4.398949 0.501174
Co 110.623561 0.018521 -0.027579
C 108.147572 -3.385142 0.365567
C 107.188499 -2.436840 0.267973
C 107.869941 -1.187432 0.118906
C 107.195931 0.027535 -0.022581
C 107.875865 1.239227 -0.163737
C 107.200521 2.492319 -0.309496
C 108.164238 3.435979 -0.406326
C 109.416128 2.748313 -0.319112
N 109.228546 1.398527 -0.173443
C 110.631811 3.393822 -0.371013
C 111.844314 2.745187 -0.291102
C 113.099714 3.429872 -0.346334
C 114.058699 2.481311 -0.251015
C 113.377013 1.228094 -0.138839
N 112.025074 1.392936 -0.160844
C 114.050727 0.009501 -0.033588
C 113.371088 -1.205411 0.075380
C 114.046505 -2.462090 0.186389
C 113.082859 -3.405294 0.288012
C 111.830924 -2.713911 0.237839
N 112.018363 -1.362952 0.103918
C 110.615264 -3.355857 0.324083
C 109.402816 -2.704062 0.274739
N 109.221835 -1.353671 0.126412
H 108.037988 -4.445242 0.486508
H 106.121912 -2.547075 0.291261
H 106.134482 2.608057 -0.330950
H 108.059842 4.496884 -0.524879
H 110.634485 4.467707 -0.480911
H 113.209471 4.492201 -0.445784
H 115.125357 2.593410 -0.255558
H 115.112549 -2.579939 0.185902
H 113.187408 -4.468020 0.388681
H 110.612613 -4.429534 0.436001
