
  xtb     11212119083D
 xtb: 6.4.1 (bd6e46d)
111134  0     0  0            999 V2000
   17.1001    0.0412    0.0938 Co  0  0  0  0  0  0  0  0  0  0  0  0
   19.6509   -2.8532    1.7675 C   0  0  0  0  0  0  0  0  0  0  0  0
   20.5838   -1.9866    1.3102 C   0  0  0  0  0  0  0  0  0  0  0  0
   19.8702   -0.9137    0.6873 C   0  0  0  0  0  0  0  0  0  0  0  0
   20.4984    0.2224    0.1700 C   0  0  0  0  0  0  0  0  0  0  0  0
   19.7695    1.3508   -0.2108 C   0  0  0  0  0  0  0  0  0  0  0  0
   20.3807    2.5998   -0.5476 C   0  0  0  0  0  0  0  0  0  0  0  0
   19.3739    3.4875   -0.7158 C   0  0  0  0  0  0  0  0  0  0  0  0
   18.1551    2.7604   -0.5283 C   0  0  0  0  0  0  0  0  0  0  0  0
   18.4103    1.4516   -0.2167 N   0  0  0  0  0  0  0  0  0  0  0  0
   16.9065    3.3102   -0.7323 C   0  0  0  0  0  0  0  0  0  0  0  0
   15.7513    2.5580   -0.7657 C   0  0  0  0  0  0  0  0  0  0  0  0
   14.4808    3.0793   -1.1784 C   0  0  0  0  0  0  0  0  0  0  0  0
   13.6325    2.0288   -1.2295 C   0  0  0  0  0  0  0  0  0  0  0  0
   14.3789    0.8800   -0.8054 C   0  0  0  0  0  0  0  0  0  0  0  0
   15.6739    1.2143   -0.5276 N   0  0  0  0  0  0  0  0  0  0  0  0
   13.8191   -0.3689   -0.6310 C   0  0  0  0  0  0  0  0  0  0  0  0
   14.4962   -1.4126   -0.0351 C   0  0  0  0  0  0  0  0  0  0  0  0
   13.8716   -2.6487    0.3374 C   0  0  0  0  0  0  0  0  0  0  0  0
   14.7969   -3.3561    1.0226 C   0  0  0  0  0  0  0  0  0  0  0  0
   15.9933   -2.5660    1.0276 C   0  0  0  0  0  0  0  0  0  0  0  0
   15.7979   -1.3792    0.3789 N   0  0  0  0  0  0  0  0  0  0  0  0
   17.1902   -2.9995    1.5584 C   0  0  0  0  0  0  0  0  0  0  0  0
   18.3780   -2.3197    1.3879 C   0  0  0  0  0  0  0  0  0  0  0  0
   18.5247   -1.1194    0.7438 N   0  0  0  0  0  0  0  0  0  0  0  0
   19.7915   -3.7760    2.2960 H   0  0  0  0  0  0  0  0  0  0  0  0
   21.6514   -2.0346    1.4010 H   0  0  0  0  0  0  0  0  0  0  0  0
   21.4382    2.7550   -0.6296 H   0  0  0  0  0  0  0  0  0  0  0  0
   19.4297    4.5294   -0.9646 H   0  0  0  0  0  0  0  0  0  0  0  0
   16.8409    4.3644   -0.9543 H   0  0  0  0  0  0  0  0  0  0  0  0
   14.2939    4.1094   -1.4127 H   0  0  0  0  0  0  0  0  0  0  0  0
   12.5959    2.0115   -1.5055 H   0  0  0  0  0  0  0  0  0  0  0  0
   12.7846   -0.5131   -0.9028 H   0  0  0  0  0  0  0  0  0  0  0  0
   12.8551   -2.9074    0.1122 H   0  0  0  0  0  0  0  0  0  0  0  0
   14.7071   -4.3254    1.4734 H   0  0  0  0  0  0  0  0  0  0  0  0
   17.2128   -3.9508    2.0679 H   0  0  0  0  0  0  0  0  0  0  0  0
   38.7519   -0.0224    0.0897 Co  0  0  0  0  0  0  0  0  0  0  0  0
   36.2179    2.7973    1.9060 C   0  0  0  0  0  0  0  0  0  0  0  0
   35.2803    1.9646    1.3982 C   0  0  0  0  0  0  0  0  0  0  0  0
   35.9883    0.9197    0.7233 C   0  0  0  0  0  0  0  0  0  0  0  0
   35.3542   -0.1867    0.1512 C   0  0  0  0  0  0  0  0  0  0  0  0
   36.0773   -1.3031   -0.2740 C   0  0  0  0  0  0  0  0  0  0  0  0
   35.4610   -2.5354   -0.6595 C   0  0  0  0  0  0  0  0  0  0  0  0
   36.4636   -3.4217   -0.8572 C   0  0  0  0  0  0  0  0  0  0  0  0
   37.6857   -2.7083   -0.6406 C   0  0  0  0  0  0  0  0  0  0  0  0
   37.4360   -1.4110   -0.2802 N   0  0  0  0  0  0  0  0  0  0  0  0
   38.9323   -3.2536   -0.8687 C   0  0  0  0  0  0  0  0  0  0  0  0
   40.0889   -2.5027   -0.8806 C   0  0  0  0  0  0  0  0  0  0  0  0
   41.3548   -3.0076   -1.3263 C   0  0  0  0  0  0  0  0  0  0  0  0
   42.2034   -1.9561   -1.3443 C   0  0  0  0  0  0  0  0  0  0  0  0
   41.4630   -0.8252   -0.8654 C   0  0  0  0  0  0  0  0  0  0  0  0
   40.1702   -1.1698   -0.5894 N   0  0  0  0  0  0  0  0  0  0  0  0
   42.0272    0.4130   -0.6368 C   0  0  0  0  0  0  0  0  0  0  0  0
   41.3591    1.4259    0.0199 C   0  0  0  0  0  0  0  0  0  0  0  0
   41.9920    2.6360    0.4576 C   0  0  0  0  0  0  0  0  0  0  0  0
   41.0752    3.3068    1.1892 C   0  0  0  0  0  0  0  0  0  0  0  0
   39.8747    2.5237    1.1570 C   0  0  0  0  0  0  0  0  0  0  0  0
   40.0604    1.3746    0.4412 N   0  0  0  0  0  0  0  0  0  0  0  0
   38.6812    2.9348    1.7130 C   0  0  0  0  0  0  0  0  0  0  0  0
   37.4884    2.2747    1.5037 C   0  0  0  0  0  0  0  0  0  0  0  0
   37.3349    1.1117    0.7959 N   0  0  0  0  0  0  0  0  0  0  0  0
   36.0819    3.6915    2.4827 H   0  0  0  0  0  0  0  0  0  0  0  0
   34.2127    2.0167    1.4863 H   0  0  0  0  0  0  0  0  0  0  0  0
   34.4030   -2.6821   -0.7505 H   0  0  0  0  0  0  0  0  0  0  0  0
   36.4030   -4.4534   -1.1442 H   0  0  0  0  0  0  0  0  0  0  0  0
   38.9944   -4.2988   -1.1310 H   0  0  0  0  0  0  0  0  0  0  0  0
   41.5386   -4.0276   -1.6036 H   0  0  0  0  0  0  0  0  0  0  0  0
   43.2370   -1.9285   -1.6302 H   0  0  0  0  0  0  0  0  0  0  0  0
   43.0594    0.5684   -0.9107 H   0  0  0  0  0  0  0  0  0  0  0  0
   43.0081    2.9028    0.2403 H   0  0  0  0  0  0  0  0  0  0  0  0
   41.1731    4.2482    1.6942 H   0  0  0  0  0  0  0  0  0  0  0  0
   38.6653    3.8565    2.2745 H   0  0  0  0  0  0  0  0  0  0  0  0
   21.8987    0.2474    0.1037 C   0  0  0  0  0  0  0  0  0  0  0  0
   23.1092    0.2368    0.0323 C   0  0  0  0  0  0  0  0  0  0  0  0
   32.7435   -0.1756    0.0130 C   0  0  0  0  0  0  0  0  0  0  0  0
   33.9540   -0.1994    0.0814 C   0  0  0  0  0  0  0  0  0  0  0  0
   27.9261    0.0373   -0.2105 Co  0  0  0  0  0  0  0  0  0  0  0  0
   25.3061   -3.2587   -0.4925 C   0  0  0  0  0  0  0  0  0  0  0  0
   24.3900   -2.2738   -0.3543 C   0  0  0  0  0  0  0  0  0  0  0  0
   25.1253   -1.0539   -0.2125 C   0  0  0  0  0  0  0  0  0  0  0  0
   24.5078    0.1889   -0.0565 C   0  0  0  0  0  0  0  0  0  0  0  0
   25.2408    1.3760   -0.0301 C   0  0  0  0  0  0  0  0  0  0  0  0
   24.6274    2.6657    0.0567 C   0  0  0  0  0  0  0  0  0  0  0  0
   25.6251    3.5727   -0.0457 C   0  0  0  0  0  0  0  0  0  0  0  0
   26.8400    2.8265   -0.1698 C   0  0  0  0  0  0  0  0  0  0  0  0
   26.5947    1.4790   -0.1478 N   0  0  0  0  0  0  0  0  0  0  0  0
   28.0788    3.4190   -0.2840 C   0  0  0  0  0  0  0  0  0  0  0  0
   29.2617    2.7133   -0.3037 C   0  0  0  0  0  0  0  0  0  0  0  0
   30.5462    3.3430   -0.3487 C   0  0  0  0  0  0  0  0  0  0  0  0
   31.4626    2.3528   -0.2579 C   0  0  0  0  0  0  0  0  0  0  0  0
   30.7275    1.1278   -0.1697 C   0  0  0  0  0  0  0  0  0  0  0  0
   29.3843    1.3516   -0.2114 N   0  0  0  0  0  0  0  0  0  0  0  0
   31.3448   -0.1209   -0.0702 C   0  0  0  0  0  0  0  0  0  0  0  0
   30.6112   -1.3078   -0.0929 C   0  0  0  0  0  0  0  0  0  0  0  0
   31.2245   -2.6001   -0.0617 C   0  0  0  0  0  0  0  0  0  0  0  0
   30.2269   -3.5018   -0.2029 C   0  0  0  0  0  0  0  0  0  0  0  0
   29.0121   -2.7509   -0.2945 C   0  0  0  0  0  0  0  0  0  0  0  0
   29.2573   -1.4056   -0.2140 N   0  0  0  0  0  0  0  0  0  0  0  0
   27.7734   -3.3378   -0.4347 C   0  0  0  0  0  0  0  0  0  0  0  0
   26.5906   -2.6316   -0.4214 C   0  0  0  0  0  0  0  0  0  0  0  0
   26.4684   -1.2755   -0.2675 N   0  0  0  0  0  0  0  0  0  0  0  0
   25.1491   -4.3118   -0.6220 H   0  0  0  0  0  0  0  0  0  0  0  0
   23.3197   -2.3405   -0.3611 H   0  0  0  0  0  0  0  0  0  0  0  0
   23.5752    2.8290    0.1805 H   0  0  0  0  0  0  0  0  0  0  0  0
   25.5670    4.6436   -0.0321 H   0  0  0  0  0  0  0  0  0  0  0  0
   28.1269    4.4966   -0.3276 H   0  0  0  0  0  0  0  0  0  0  0  0
   30.7030    4.4009   -0.4306 H   0  0  0  0  0  0  0  0  0  0  0  0
   32.5329    2.4196   -0.2640 H   0  0  0  0  0  0  0  0  0  0  0  0
   32.2766   -2.7684    0.0557 H   0  0  0  0  0  0  0  0  0  0  0  0
   30.2849   -4.5724   -0.2351 H   0  0  0  0  0  0  0  0  0  0  0  0
   27.7250   -4.4123   -0.5268 H   0  0  0  0  0  0  0  0  0  0  0  0
  2  3  2  0  0  0  0
  3  4  1  0  0  0  0
  4  5  4  0  0  0  0
  5  6  4  0  0  0  0
  6  7  1  0  0  0  0
  7  8  2  0  0  0  0
  8  9  1  0  0  0  0
  1 10  1  0  0  0  0
  6 10  4  0  0  0  0
  9 10  4  0  0  0  0
  9 11  4  0  0  0  0
 11 12  4  0  0  0  0
 12 13  1  0  0  0  0
 13 14  2  0  0  0  0
 14 15  1  0  0  0  0
  1 16  1  0  0  0  0
 12 16  4  0  0  0  0
 15 16  4  0  0  0  0
 15 17  4  0  0  0  0
 17 18  4  0  0  0  0
 18 19  1  0  0  0  0
 19 20  2  0  0  0  0
 20 21  1  0  0  0  0
  1 22  1  0  0  0  0
 18 22  4  0  0  0  0
 21 22  4  0  0  0  0
 21 23  4  0  0  0  0
  2 24  1  0  0  0  0
 23 24  4  0  0  0  0
  1 25  1  0  0  0  0
  4 25  4  0  0  0  0
 24 25  4  0  0  0  0
  2 26  1  0  0  0  0
  3 27  1  0  0  0  0
  7 28  1  0  0  0  0
  8 29  1  0  0  0  0
 11 30  1  0  0  0  0
 13 31  1  0  0  0  0
 14 32  1  0  0  0  0
 17 33  1  0  0  0  0
 19 34  1  0  0  0  0
 20 35  1  0  0  0  0
 23 36  1  0  0  0  0
 38 39  2  0  0  0  0
 39 40  1  0  0  0  0
 40 41  4  0  0  0  0
 41 42  4  0  0  0  0
 42 43  1  0  0  0  0
 43 44  2  0  0  0  0
 44 45  1  0  0  0  0
 37 46  1  0  0  0  0
 42 46  4  0  0  0  0
 45 46  4  0  0  0  0
 45 47  4  0  0  0  0
 47 48  4  0  0  0  0
 48 49  1  0  0  0  0
 49 50  2  0  0  0  0
 50 51  1  0  0  0  0
 37 52  1  0  0  0  0
 48 52  4  0  0  0  0
 51 52  4  0  0  0  0
 51 53  4  0  0  0  0
 53 54  4  0  0  0  0
 54 55  1  0  0  0  0
 55 56  2  0  0  0  0
 56 57  1  0  0  0  0
 37 58  1  0  0  0  0
 54 58  4  0  0  0  0
 57 58  4  0  0  0  0
 57 59  4  0  0  0  0
 38 60  1  0  0  0  0
 59 60  4  0  0  0  0
 37 61  1  0  0  0  0
 40 61  4  0  0  0  0
 60 61  4  0  0  0  0
 38 62  1  0  0  0  0
 39 63  1  0  0  0  0
 43 64  1  0  0  0  0
 44 65  1  0  0  0  0
 47 66  1  0  0  0  0
 49 67  1  0  0  0  0
 50 68  1  0  0  0  0
 53 69  1  0  0  0  0
 55 70  1  0  0  0  0
 56 71  1  0  0  0  0
 59 72  1  0  0  0  0
  5 73  1  0  0  0  0
 73 74  3  0  0  0  0
 41 76  1  0  0  0  0
 75 76  3  0  0  0  0
 78 79  2  0  0  0  0
 79 80  1  0  0  0  0
 74 81  1  0  0  0  0
 80 81  4  0  0  0  0
 81 82  4  0  0  0  0
 82 83  1  0  0  0  0
 83 84  2  0  0  0  0
 84 85  1  0  0  0  0
 77 86  1  0  0  0  0
 82 86  4  0  0  0  0
 85 86  4  0  0  0  0
 85 87  4  0  0  0  0
 87 88  4  0  0  0  0
 88 89  1  0  0  0  0
 89 90  2  0  0  0  0
 90 91  1  0  0  0  0
 77 92  1  0  0  0  0
 88 92  4  0  0  0  0
 91 92  4  0  0  0  0
 75 93  1  0  0  0  0
 91 93  4  0  0  0  0
 93 94  4  0  0  0  0
 94 95  1  0  0  0  0
 95 96  2  0  0  0  0
 96 97  1  0  0  0  0
 77 98  1  0  0  0  0
 94 98  4  0  0  0  0
 97 98  4  0  0  0  0
 97 99  4  0  0  0  0
 78100  1  0  0  0  0
 99100  4  0  0  0  0
 77101  1  0  0  0  0
 80101  4  0  0  0  0
100101  4  0  0  0  0
 78102  1  0  0  0  0
 79103  1  0  0  0  0
 83104  1  0  0  0  0
 84105  1  0  0  0  0
 87106  1  0  0  0  0
 89107  1  0  0  0  0
 90108  1  0  0  0  0
 95109  1  0  0  0  0
 96110  1  0  0  0  0
 99111  1  0  0  0  0
M  END
