242

Zn 29.786806 -0.000462 -0.010244
C 32.323942 -3.432416 0.021712
C 33.276378 -2.468658 0.022386
C 32.586124 -1.210443 0.011759
C 33.223820 0.041341 0.006939
C 32.556093 1.277160 -0.001711
C 33.215692 2.551738 -0.004338
C 32.240205 3.492116 -0.010095
C 30.988311 2.789736 -0.011767
N 31.212352 1.445414 -0.006813
C 29.746385 3.402448 -0.018444
C 28.520131 2.758713 -0.024411
C 27.246096 3.425216 -0.035094
C 26.300312 2.457202 -0.041471
C 26.995828 1.198381 -0.034168
N 28.337462 1.412201 -0.023693
C 26.378675 -0.041937 -0.037644
C 27.025683 -1.266908 -0.029424
C 26.360944 -2.542280 -0.032053
C 27.329919 -3.487002 -0.019877
C 28.587367 -2.789695 -0.010118
N 28.372094 -1.448051 -0.016567
C 29.828844 -3.403386 0.003440
C 31.055467 -2.760596 0.010411
N 31.246868 -1.411213 0.005215
H 32.453368 -4.497527 0.027797
H 34.343318 -2.581585 0.029224
H 34.279614 2.690458 -0.001746
H 32.343843 4.560037 -0.013337
H 29.734248 4.483578 -0.020667
H 27.112785 4.490070 -0.037554
H 25.232686 2.565797 -0.050304
H 25.297774 -0.055049 -0.047253
H 25.296293 -2.676818 -0.041845
H 27.222545 -4.554779 -0.017668
H 29.843025 -4.484476 0.007935
Zn 109.824533 0.032990 -0.012284
C 107.295035 3.409888 0.632079
C 106.340548 2.464531 0.455660
C 107.028081 1.226922 0.220391
C 106.387706 -0.002604 -0.006579
C 107.052436 -1.219073 -0.233173
C 106.389814 -2.471166 -0.463141
C 107.363163 -3.397259 -0.638903
C 108.616656 -2.708362 -0.517440
N 108.395766 -1.386360 -0.270626
C 109.857166 -3.312344 -0.636605
C 111.084826 -2.681007 -0.525676
C 112.357372 -3.337821 -0.655094
C 113.305340 -2.387483 -0.482571
C 112.612681 -1.149234 -0.247197
N 111.270546 -1.357642 -0.279381
C 113.232667 0.068873 -0.021150
C 112.588476 1.273518 0.209262
C 113.256214 2.525616 0.443441
C 112.289392 3.455364 0.623445
C 111.030282 2.772215 0.499159
N 111.242446 1.453595 0.248880
C 109.790196 3.377344 0.617934
C 108.562111 2.747757 0.502872
N 108.367806 1.422150 0.253021
H 107.167879 4.456530 0.830952
H 105.273831 2.577069 0.480637
H 105.325570 -2.605984 -0.483197
H 107.257207 -4.447230 -0.832876
H 109.866839 -4.375209 -0.834590
H 112.488223 -4.384729 -0.851404
H 114.372731 -2.495601 -0.508378
H 114.313625 0.080263 -0.024237
H 114.321221 2.656099 0.463946
H 112.399235 4.504323 0.821718
H 109.778504 4.439645 0.818829
C 34.621588 0.057371 0.009529
C 35.841634 0.065156 0.010081
C 37.177991 0.071482 0.009918
C 38.402459 0.073980 0.005185
C 39.738689 0.074985 0.001783
C 40.958948 0.073712 -0.003320
C 50.630767 0.039137 -0.024202
C 51.851128 0.037742 -0.023679
C 53.187033 0.035249 -0.022747
C 54.411712 0.034805 -0.022963
C 55.747606 0.034832 -0.021755
C 56.967968 0.034549 -0.021492
C 66.638172 0.037124 -0.022380
C 67.858513 0.041633 -0.021458
C 69.194291 0.041880 -0.022250
C 70.418914 0.041262 -0.020801
C 71.754686 0.042209 -0.020787
C 72.975013 0.037730 -0.019545
C 82.644733 0.045726 -0.023306
C 83.865075 0.048565 -0.023501
C 85.200923 0.048148 -0.023217
C 86.425572 0.047607 -0.022260
C 87.761421 0.044424 -0.022195
C 88.981742 0.039979 -0.021254
C 98.652590 -0.015689 -0.016848
C 99.872750 -0.019031 -0.014029
C 101.209005 -0.021048 -0.014509
C 102.433377 -0.023991 -0.009976
C 103.769796 -0.020960 -0.010394
C 104.989817 -0.015441 -0.007922
Zn 45.795000 0.055960 -0.017355
C 43.289333 -3.373609 0.387209
C 42.327781 -2.424504 0.280921
C 43.006097 -1.168946 0.133213
C 42.356110 0.068778 -0.007641
C 43.014464 1.301472 -0.153095
C 42.344626 2.561848 -0.298269
C 43.312601 3.503577 -0.411923
C 44.569188 2.815513 -0.335107
N 44.356637 1.478367 -0.178010
C 45.806517 3.432110 -0.410138
C 47.039523 2.806807 -0.339519
C 48.300844 3.485874 -0.419942
C 49.262347 2.537046 -0.311079
C 48.583894 1.281348 -0.164817
N 47.243084 1.467873 -0.184548
C 49.233853 0.043565 -0.023816
C 48.575511 -1.189703 0.117576
C 49.245470 -2.450582 0.258232
C 48.277579 -3.392718 0.368850
C 47.020883 -2.704344 0.295347
N 47.233466 -1.366605 0.142161
C 45.783658 -3.320680 0.371289
C 44.550561 -2.694752 0.304262
N 44.347050 -1.355830 0.150365
H 43.170042 -4.432762 0.510106
H 41.261937 -2.545920 0.298627
H 41.279635 2.691287 -0.310075
H 43.200361 4.563389 -0.535874
H 45.810059 4.506083 -0.535544
H 48.420271 4.545008 -0.542909
H 50.328209 2.658753 -0.326448
H 50.310502 -2.580008 0.268650
H 48.389804 -4.453007 0.488689
H 45.779906 -4.394861 0.494892
Zn 61.803290 0.036158 -0.020876
C 59.310264 -3.404324 0.370974
C 58.345362 -2.459149 0.260086
C 59.019305 -1.200514 0.118684
C 58.364866 0.035018 -0.021227
C 59.018534 1.270993 -0.160963
C 58.343839 2.529178 -0.302812
C 59.308172 3.474969 -0.413375
C 60.567405 2.791510 -0.338561
N 60.359923 1.453156 -0.184202
C 61.802278 3.412531 -0.416078
C 63.037569 2.791289 -0.348561
C 64.296436 3.474127 -0.434769
C 65.261282 2.528810 -0.324732
C 64.587228 1.271619 -0.171375
N 63.245794 1.453570 -0.189681
C 65.241378 0.037104 -0.021906
C 64.587819 -1.197633 0.128266
C 65.262752 -2.454338 0.281783
C 64.298572 -3.400196 0.392915
C 63.039222 -2.718203 0.307009
N 63.246526 -1.380410 0.147477
C 61.804341 -3.340223 0.374805
C 60.569085 -2.720007 0.296886
N 60.360793 -1.381779 0.142568
H 59.194744 -4.464171 0.491449
H 57.279958 -2.585156 0.271111
H 57.278363 2.654483 -0.314468
H 59.192017 4.534708 -0.534188
H 61.801868 4.486473 -0.541722
H 64.412116 4.533142 -0.562252
H 66.326685 2.653843 -0.343490
H 66.328267 -2.578639 0.299985
H 64.414974 -4.459057 0.520938
H 61.804604 -4.414137 0.500680
Zn 77.809753 0.041870 -0.022227
C 75.318557 -3.399354 0.375574
C 74.353291 -2.454659 0.263943
C 75.026784 -1.195974 0.120653
C 74.371802 0.039093 -0.020347
C 75.024456 1.275285 -0.162270
C 74.348881 2.532895 -0.305169
C 75.312575 3.479015 -0.418283
C 76.572261 2.796338 -0.343745
N 76.365666 1.458086 -0.187179
C 77.806770 3.417722 -0.423110
C 79.042362 2.797095 -0.354658
C 80.300815 3.480568 -0.441483
C 81.266214 2.536037 -0.329450
C 80.592909 1.278662 -0.174473
N 79.251334 1.459768 -0.193582
C 81.247886 0.044762 -0.023401
C 80.595007 -1.190234 0.127921
C 81.270592 -2.446480 0.282268
C 80.306908 -3.392710 0.394652
C 79.047207 -2.711405 0.308728
N 79.253782 -1.373686 0.147786
C 77.812708 -3.334125 0.378021
C 76.577123 -2.714692 0.300032
N 76.368281 -1.376718 0.144054
H 75.203394 -4.459074 0.497464
H 73.287918 -2.580964 0.275536
H 73.283335 2.657624 -0.315649
H 75.195624 4.538513 -0.540489
H 77.805883 4.491429 -0.550719
H 80.415796 4.539456 -0.570620
H 82.331547 2.661745 -0.347803
H 82.336159 -2.570311 0.299986
H 80.423807 -4.451416 0.523509
H 77.813692 -4.407876 0.505266
Zn 93.816951 0.012813 -0.018622
C 91.302758 -3.410651 0.387344
C 90.343712 -2.459367 0.278260
C 91.025419 -1.205935 0.127696
C 90.378593 0.032644 -0.020392
C 91.039722 1.263611 -0.168146
C 90.372721 2.524720 -0.320384
C 91.342834 3.464731 -0.429472
C 92.597908 2.774849 -0.343373
N 92.382173 1.438136 -0.185798
C 93.836588 3.389332 -0.409713
C 95.068122 2.761585 -0.331778
C 96.331061 3.438353 -0.405022
C 97.290249 2.487339 -0.294334
C 96.608747 1.232682 -0.153752
N 95.268249 1.422128 -0.178140
C 97.255374 -0.007125 -0.016484
C 96.594084 -1.239201 0.119647
C 97.261061 -2.501673 0.260055
C 96.290961 -3.441715 0.368915
C 95.035933 -2.750466 0.294587
N 95.251518 -1.413268 0.142310
C 93.797199 -3.364093 0.370536
C 92.565808 -2.735245 0.303346
N 92.365720 -1.395980 0.146697
H 91.180628 -4.469186 0.512774
H 89.277542 -2.578056 0.295976
H 89.308002 2.655659 -0.339325
H 91.233099 4.524484 -0.556170
H 93.842970 4.463356 -0.534542
H 96.453119 4.497511 -0.525228
H 98.356383 2.607010 -0.305349
H 98.325779 -2.633309 0.272259
H 96.400635 -4.502286 0.488452
H 93.791019 -4.438227 0.494374
