154
 xtb: 6.4.1 (bd6e46d)
Zn       21.71755836128110    0.00176272796758   -0.01004978471059
C        24.24938253039834   -3.43480643687276    0.01415500478599
C        25.20298422418788   -2.47217399733958    0.01562967665881
C        24.51433929164156   -1.21311408104780    0.00830414415298
C        25.15328024379685    0.03758764510832    0.00372518498417
C        24.48802999410903    1.27441505314194   -0.00412687365781
C        25.15034756726870    2.54758577006793   -0.00585242095898
C        24.17692995211330    3.49006100461354   -0.01088962835107
C        22.92350258694764    2.79031018091947   -0.01309995752123
N        23.14469468177110    1.44557032590979   -0.00852912336654
C        21.68265761591861    3.40515968486339   -0.01878641421176
C        20.45548640797712    2.76328284323570   -0.02370311376291
C        19.18253131072214    3.43161641976668   -0.03234499741095
C        18.23524916670736    2.46503802377233   -0.03675631194157
C        18.92878495616520    1.20523597956750   -0.02999885606664
N        20.27075579817433    1.41699506971331   -0.02200135605520
C        18.30973633436572   -0.03418557900829   -0.03074879817981
C        18.95470730438125   -1.26021706112003   -0.02287329559254
C        18.28773615839692   -2.53441299760035   -0.02336110651289
C        19.25510228772074   -3.48089074706308   -0.01423123470206
C        20.51377287318328   -2.78583543040932   -0.00820590627571
N        20.30084368043010   -1.44372008765118   -0.01370814141440
C        21.75401571749316   -3.40207324100700    0.00088512864834
C        22.98171724835436   -2.76132835285724    0.00629249460302
N        23.17484731628208   -1.41226929941924    0.00314774848200
H        24.37760794489295   -4.49998008434845    0.01678963589910
H        26.26978287144215   -2.58601282899116    0.02012128861083
H        26.21463731898415    2.68315288824258   -0.00229773477361
H        24.28274195476627    4.55793440742375   -0.01243260165157
H        21.67219479100025    4.48644107307012   -0.01969539874437
H        19.05074646254001    4.49682956376179   -0.03384913168066
H        17.16780933096998    2.57535806719548   -0.04307113821551
H        17.22880462678833   -0.04572459864210   -0.03773057643893
H        17.22285877960146   -2.66732210254873   -0.03025780900313
H        19.14577380797006   -4.54833645752838   -0.01244922877855
H        21.76608194560624   -4.48305787543174    0.00301172403329
Zn       62.05907879161380    0.03669097158453   -0.00926626495663
C        59.53596902108190    3.42392896300650    0.60697428448118
C        58.58003177152349    2.47895975625628    0.43630207124966
C        59.26567398471878    1.23827826929970    0.21165430670148
C        58.62347020782183    0.00795848031904   -0.00283221722969
C        59.28526009045727   -1.21175053590904   -0.21829273743086
C        58.61979300283195   -2.46401662209108   -0.43924870352410
C        59.59095657163490   -3.39280249337296   -0.61266446885654
C        60.84606625309829   -2.70580562054305   -0.49689352931597
N        60.62819980831337   -1.38221492078893   -0.25627526773712
C        62.08530531612521   -3.31168739062287   -0.61904793274139
C        63.31403806422012   -2.68121679104877   -0.51541548509158
C        64.58526882217329   -3.33952335241256   -0.64900694786154
C        65.53501507302859   -2.39014043902813   -0.48088899833104
C        64.84473525392845   -1.15086228654511   -0.24462377804379
N        63.50221880980118   -1.35752508743624   -0.27261251649051
C        65.46702568962277    0.06648622907022   -0.02075205479598
C        64.82524472705414    1.27276088727705    0.20776773340713
C        65.49547821106420    2.52413437109237    0.43866971926183
C        64.53050085006760    3.45675846328235    0.61386764536454
C        63.27007304025878    2.77613206663356    0.48984694311257
N        63.47956621983454    1.45589403987579    0.24561288199105
C        62.03134250244889    3.38531234838943    0.60169008856849
C        60.80208302733345    2.75819885587907    0.48597135474346
N        60.60568527299506    1.43124050557002    0.24529750218871
H        59.41032746841056    4.47219128348914    0.79808999279917
H        57.51347360766954    2.59311253494291    0.45896307653044
H        57.55518265319789   -2.59609948364927   -0.45844237153773
H        59.48240036996646   -4.44327433543304   -0.80290572954361
H        62.09304603121133   -4.37512063285614   -0.81468186583364
H        64.71426549334898   -4.38667018044251   -0.84590790747451
H        66.60212986057975   -2.49945319711446   -0.51140421788322
H        66.54799348000270    0.07605680472564   -0.02491267575262
H        66.56072462608880    2.65247193527284    0.46058971426114
H        64.64254858857662    4.50595583026180    0.80903047880110
H        62.02190181161665    4.44852681210954    0.79724811364693
C        26.55169996813714    0.05184907908082    0.00575433240782
C        27.76986077423036    0.06014137104724    0.00570166337601
C        29.11171415711556    0.06754847803984    0.00471441541964
C        30.33003092607992    0.07008376167488    0.00363762074930
C        39.99665241887385    0.04398027326887   -0.02240355408156
C        41.21570848344750    0.04126144796872   -0.02252886154098
C        42.55842125345984    0.03604974012593   -0.02232892663896
C        43.77686306659150    0.02979971999774   -0.02138542627686
C        53.44647268609992   -0.01225044035387   -0.00781912817960
C        54.66468626395070   -0.01339032719534   -0.00519119335223
C        56.00669994328850   -0.01105776881187   -0.00305470679819
C        57.22480994665469   -0.00225928402274   -0.00216683116940
Zn       35.26564773703064    0.06159427657780   -0.10031646515894
C        32.66153899840651   -3.37416404727813    0.38696881005452
C        31.70047297797957   -2.42621604978879    0.28209440559917
C        32.37915569012524   -1.16875174770959    0.13703617399165
C        31.72801748780677    0.06769640191472   -0.00080013834313
C        32.38483149705852    1.30184612582297   -0.14443419065423
C        31.71187029392728    2.56123721843731   -0.28832908660745
C        32.67786618467547    3.50454627465526   -0.40289394815210
C        33.93601006914425    2.81818293476957   -0.32784202953279
N        33.72628076266716    1.48032216552007   -0.17066621740927
C        35.17197772238463    3.43669223944280   -0.40334968306429
C        36.40608402294129    2.81289947773183   -0.33400847391923
C        37.66617267411244    3.49219094683138   -0.41308273323400
C        38.62875835423268    2.54317784719408   -0.30528639301369
C        37.95141606972616    1.28856711076665   -0.16012638282854
N        36.61122508876517    1.47375068322213   -0.18059909865114
C        38.59340731826413    0.04468450870686   -0.01687937100381
C        37.90763519615494   -1.17930908495222    0.13714219292138
C        38.60430675142148   -2.43353713232085    0.26313830449110
C        37.64712181575052   -3.38535106382639    0.37529402157588
C        36.38204662417405   -2.70725381518844    0.31753677810707
N        36.46630908245408   -1.36012944523548    0.32184482312007
C        35.15075254226019   -3.32765167348699    0.37829104816736
C        33.92369435741966   -2.69360762713169    0.30786707957454
N        33.71952254706671   -1.35432462933135    0.15461633042851
H        32.54435347002233   -4.43371698217098    0.50697057281481
H        30.63493183977092   -2.54707159011293    0.29765741694366
H        30.64650710467424    2.68807059234194   -0.29817663089475
H        32.56402931366803    4.56435011215256   -0.52580828644438
H        35.17460455920644    4.51096119553247   -0.52738402587048
H        37.78536794946439    4.55166433471763   -0.53376274590499
H        39.69450006280368    2.66542604532607   -0.31919667532262
H        39.67937823950624   -2.56455099513013    0.27330932636938
H        37.76449581603020   -4.44660198185900    0.49485767806677
H        35.15133187436802   -4.39620444586333    0.49437079091024
Zn       48.61151660869287    0.00794904161156   -0.01593740404502
C        46.10152694470005   -3.42064969893509    0.37204674297577
C        45.14179630750198   -2.46961999559978    0.26714112283013
C        45.82241329151019   -1.21492113641329    0.12270732949098
C        45.17482171598954    0.02334351946333   -0.02026964081619
C        45.83381056658811    1.25577360950763   -0.16184952810770
C        45.16472618551890    2.51646382297160   -0.30838260120960
C        46.13314973603445    3.45883704270622   -0.41148985828374
C        47.38939250440139    2.77084665465230   -0.32777678083326
N        47.17594557921806    1.43296770056542   -0.17742699137462
C        48.62705669516401    3.38781099786011   -0.38895069747786
C        49.85908276879481    2.76090553676350   -0.31278216628923
C        51.12160093638646    3.43915340544175   -0.38106552018585
C        52.08137350733676    2.48837726759956   -0.27417458838657
C        51.40074357030225    1.23240187629470   -0.14050293470667
N        50.06014989014752    1.42092736702220   -0.16554859206882
C        52.04836834077403   -0.00717411878775   -0.01016589968851
C        51.38953703044974   -1.24100558294239    0.11730179377294
C        52.05864225223432   -2.50305984090644    0.25163527659825
C        51.09012791835817   -3.44534371125613    0.35482508666550
C        49.83386315580692   -2.75592307962736    0.28329409838295
N        50.04724756174070   -1.41768172013863    0.13778523790023
C        48.59605647682563   -3.37182572715168    0.35548321546119
C        47.36404565607801   -2.74390147553728    0.29160021529019
N        47.16287894153386   -1.40411325901240    0.14125939790342
H        45.98031078881805   -4.48003276419226    0.49161866909143
H        44.07568922025055   -2.58858488043518    0.28341832463381
H        44.09982563627521    2.64495809675669   -0.32702394259779
H        46.02169669436537    4.51912358335541   -0.53178060083295
H        48.63211939146366    4.46252804769020   -0.50725265085417
H        51.24274115991933    4.49906212490303   -0.49518201674823
H        53.14747690830952    2.60823484378856   -0.28373525000047
H        53.12361529784430   -2.63230274295129    0.26401817929321
H        51.20153576717428   -4.50651742008302    0.46820168054514
H        48.59125761125618   -4.44674198418885    0.47292160811915
