
  xtb     11182119083D
 xtb: 6.4.1 (bd6e46d)
154185  0     0  0            999 V2000
   21.7175    0.0019   -0.0101 Zn  0  0  0  0  0  0  0  0  0  0  0  0
   24.2493   -3.4346    0.0153 C   0  0  0  0  0  0  0  0  0  0  0  0
   25.2030   -2.4719    0.0163 C   0  0  0  0  0  0  0  0  0  0  0  0
   24.5143   -1.2129    0.0083 C   0  0  0  0  0  0  0  0  0  0  0  0
   25.1533    0.0378    0.0036 C   0  0  0  0  0  0  0  0  0  0  0  0
   24.4881    1.2746   -0.0045 C   0  0  0  0  0  0  0  0  0  0  0  0
   25.1504    2.5478   -0.0070 C   0  0  0  0  0  0  0  0  0  0  0  0
   24.1770    3.4903   -0.0125 C   0  0  0  0  0  0  0  0  0  0  0  0
   22.9235    2.7905   -0.0140 C   0  0  0  0  0  0  0  0  0  0  0  0
   23.1447    1.4458   -0.0088 N   0  0  0  0  0  0  0  0  0  0  0  0
   21.6827    3.4054   -0.0203 C   0  0  0  0  0  0  0  0  0  0  0  0
   20.4555    2.7635   -0.0246 C   0  0  0  0  0  0  0  0  0  0  0  0
   19.1826    3.4319   -0.0340 C   0  0  0  0  0  0  0  0  0  0  0  0
   18.2353    2.4654   -0.0380 C   0  0  0  0  0  0  0  0  0  0  0  0
   18.9288    1.2055   -0.0304 C   0  0  0  0  0  0  0  0  0  0  0  0
   20.2708    1.4172   -0.0223 N   0  0  0  0  0  0  0  0  0  0  0  0
   18.3097   -0.0339   -0.0310 C   0  0  0  0  0  0  0  0  0  0  0  0
   18.9547   -1.2600   -0.0229 C   0  0  0  0  0  0  0  0  0  0  0  0
   18.2877   -2.5341   -0.0228 C   0  0  0  0  0  0  0  0  0  0  0  0
   19.2550   -3.4806   -0.0132 C   0  0  0  0  0  0  0  0  0  0  0  0
   20.5137   -2.7856   -0.0077 C   0  0  0  0  0  0  0  0  0  0  0  0
   20.3008   -1.4435   -0.0137 N   0  0  0  0  0  0  0  0  0  0  0  0
   21.7540   -3.4018    0.0019 C   0  0  0  0  0  0  0  0  0  0  0  0
   22.9817   -2.7611    0.0068 C   0  0  0  0  0  0  0  0  0  0  0  0
   23.1748   -1.4121    0.0032 N   0  0  0  0  0  0  0  0  0  0  0  0
   24.3775   -4.4998    0.0193 H   0  0  0  0  0  0  0  0  0  0  0  0
   26.2698   -2.5857    0.0214 H   0  0  0  0  0  0  0  0  0  0  0  0
   26.2146    2.6835   -0.0044 H   0  0  0  0  0  0  0  0  0  0  0  0
   24.2828    4.5581   -0.0158 H   0  0  0  0  0  0  0  0  0  0  0  0
   21.6723    4.4866   -0.0230 H   0  0  0  0  0  0  0  0  0  0  0  0
   19.0509    4.4970   -0.0373 H   0  0  0  0  0  0  0  0  0  0  0  0
   17.1679    2.5758   -0.0454 H   0  0  0  0  0  0  0  0  0  0  0  0
   17.2288   -0.0453   -0.0383 H   0  0  0  0  0  0  0  0  0  0  0  0
   17.2228   -2.6669   -0.0291 H   0  0  0  0  0  0  0  0  0  0  0  0
   19.1456   -4.5482   -0.0100 H   0  0  0  0  0  0  0  0  0  0  0  0
   21.7660   -4.4829    0.0054 H   0  0  0  0  0  0  0  0  0  0  0  0
   62.0591    0.0366   -0.0092 Zn  0  0  0  0  0  0  0  0  0  0  0  0
   59.5360    3.4239    0.6059 C   0  0  0  0  0  0  0  0  0  0  0  0
   58.5801    2.4789    0.4356 C   0  0  0  0  0  0  0  0  0  0  0  0
   59.2657    1.2381    0.2116 C   0  0  0  0  0  0  0  0  0  0  0  0
   58.6235    0.0078   -0.0027 C   0  0  0  0  0  0  0  0  0  0  0  0
   59.2852   -1.2120   -0.2179 C   0  0  0  0  0  0  0  0  0  0  0  0
   58.6198   -2.4644   -0.4381 C   0  0  0  0  0  0  0  0  0  0  0  0
   59.5909   -3.3933   -0.6111 C   0  0  0  0  0  0  0  0  0  0  0  0
   60.8460   -2.7061   -0.4960 C   0  0  0  0  0  0  0  0  0  0  0  0
   60.6282   -1.3824   -0.2560 N   0  0  0  0  0  0  0  0  0  0  0  0
   62.0853   -3.3122   -0.6175 C   0  0  0  0  0  0  0  0  0  0  0  0
   63.3140   -2.6816   -0.5145 C   0  0  0  0  0  0  0  0  0  0  0  0
   64.5852   -3.3401   -0.6474 C   0  0  0  0  0  0  0  0  0  0  0  0
   65.5350   -2.3906   -0.4797 C   0  0  0  0  0  0  0  0  0  0  0  0
   64.8447   -1.1512   -0.2442 C   0  0  0  0  0  0  0  0  0  0  0  0
   63.5022   -1.3578   -0.2723 N   0  0  0  0  0  0  0  0  0  0  0  0
   65.4670    0.0662   -0.0204 C   0  0  0  0  0  0  0  0  0  0  0  0
   64.8253    1.2725    0.2078 C   0  0  0  0  0  0  0  0  0  0  0  0
   65.4955    2.5240    0.4381 C   0  0  0  0  0  0  0  0  0  0  0  0
   64.5306    3.4567    0.6128 C   0  0  0  0  0  0  0  0  0  0  0  0
   63.2701    2.7760    0.4893 C   0  0  0  0  0  0  0  0  0  0  0  0
   63.4796    1.4557    0.2456 N   0  0  0  0  0  0  0  0  0  0  0  0
   62.0314    3.3853    0.6007 C   0  0  0  0  0  0  0  0  0  0  0  0
   60.8021    2.7581    0.4854 C   0  0  0  0  0  0  0  0  0  0  0  0
   60.6057    1.4311    0.2453 N   0  0  0  0  0  0  0  0  0  0  0  0
   59.4104    4.4725    0.7957 H   0  0  0  0  0  0  0  0  0  0  0  0
   57.5135    2.5931    0.4577 H   0  0  0  0  0  0  0  0  0  0  0  0
   57.5552   -2.5967   -0.4563 H   0  0  0  0  0  0  0  0  0  0  0  0
   59.4824   -4.4440   -0.7995 H   0  0  0  0  0  0  0  0  0  0  0  0
   62.0930   -4.3759   -0.8113 H   0  0  0  0  0  0  0  0  0  0  0  0
   64.7142   -4.3875   -0.8424 H   0  0  0  0  0  0  0  0  0  0  0  0
   66.6021   -2.5003   -0.5091 H   0  0  0  0  0  0  0  0  0  0  0  0
   66.5480    0.0756   -0.0243 H   0  0  0  0  0  0  0  0  0  0  0  0
   66.5608    2.6523    0.4595 H   0  0  0  0  0  0  0  0  0  0  0  0
   64.6426    4.5062    0.8068 H   0  0  0  0  0  0  0  0  0  0  0  0
   62.0220    4.4488    0.7950 H   0  0  0  0  0  0  0  0  0  0  0  0
   26.5517    0.0520    0.0056 C   0  0  0  0  0  0  0  0  0  0  0  0
   27.7699    0.0603    0.0056 C   0  0  0  0  0  0  0  0  0  0  0  0
   29.1117    0.0677    0.0046 C   0  0  0  0  0  0  0  0  0  0  0  0
   30.3300    0.0702    0.0034 C   0  0  0  0  0  0  0  0  0  0  0  0
   39.9991    0.0467   -0.0215 C   0  0  0  0  0  0  0  0  0  0  0  0
   41.2175    0.0415   -0.0224 C   0  0  0  0  0  0  0  0  0  0  0  0
   42.5588    0.0358   -0.0224 C   0  0  0  0  0  0  0  0  0  0  0  0
   43.7773    0.0297   -0.0214 C   0  0  0  0  0  0  0  0  0  0  0  0
   53.4465   -0.0124   -0.0077 C   0  0  0  0  0  0  0  0  0  0  0  0
   54.6647   -0.0135   -0.0051 C   0  0  0  0  0  0  0  0  0  0  0  0
   56.0067   -0.0112   -0.0029 C   0  0  0  0  0  0  0  0  0  0  0  0
   57.2248   -0.0024   -0.0020 C   0  0  0  0  0  0  0  0  0  0  0  0
   35.1648    0.0593   -0.0117 Zn  0  0  0  0  0  0  0  0  0  0  0  0
   32.6629   -3.3738    0.3885 C   0  0  0  0  0  0  0  0  0  0  0  0
   31.7009   -2.4252    0.2825 C   0  0  0  0  0  0  0  0  0  0  0  0
   32.3786   -1.1689    0.1375 C   0  0  0  0  0  0  0  0  0  0  0  0
   31.7278    0.0683   -0.0009 C   0  0  0  0  0  0  0  0  0  0  0  0
   32.3838    1.3020   -0.1446 C   0  0  0  0  0  0  0  0  0  0  0  0
   31.7118    2.5612   -0.2894 C   0  0  0  0  0  0  0  0  0  0  0  0
   32.6781    3.5045   -0.4044 C   0  0  0  0  0  0  0  0  0  0  0  0
   33.9359    2.8185   -0.3285 C   0  0  0  0  0  0  0  0  0  0  0  0
   33.7256    1.4811   -0.1708 N   0  0  0  0  0  0  0  0  0  0  0  0
   35.1723    3.4367   -0.4047 C   0  0  0  0  0  0  0  0  0  0  0  0
   36.4058    2.8123   -0.3344 C   0  0  0  0  0  0  0  0  0  0  0  0
   37.6667    3.4920   -0.4147 C   0  0  0  0  0  0  0  0  0  0  0  0
   38.6287    2.5437   -0.3061 C   0  0  0  0  0  0  0  0  0  0  0  0
   37.9510    1.2876   -0.1604 C   0  0  0  0  0  0  0  0  0  0  0  0
   36.6101    1.4735   -0.1800 N   0  0  0  0  0  0  0  0  0  0  0  0
   38.6016    0.0506   -0.0193 C   0  0  0  0  0  0  0  0  0  0  0  0
   37.9454   -1.1832    0.1243 C   0  0  0  0  0  0  0  0  0  0  0  0
   38.6176   -2.4426    0.2675 C   0  0  0  0  0  0  0  0  0  0  0  0
   37.6514   -3.3864    0.3790 C   0  0  0  0  0  0  0  0  0  0  0  0
   36.3935   -2.7004    0.3035 C   0  0  0  0  0  0  0  0  0  0  0  0
   36.6038   -1.3626    0.1486 N   0  0  0  0  0  0  0  0  0  0  0  0
   35.1572   -3.3187    0.3775 C   0  0  0  0  0  0  0  0  0  0  0  0
   33.9238   -2.6940    0.3082 C   0  0  0  0  0  0  0  0  0  0  0  0
   33.7195   -1.3550    0.1554 N   0  0  0  0  0  0  0  0  0  0  0  0
   32.5443   -4.4333    0.5096 H   0  0  0  0  0  0  0  0  0  0  0  0
   30.6351   -2.5466    0.2990 H   0  0  0  0  0  0  0  0  0  0  0  0
   30.6465    2.6882   -0.3002 H   0  0  0  0  0  0  0  0  0  0  0  0
   32.5642    4.5640   -0.5290 H   0  0  0  0  0  0  0  0  0  0  0  0
   35.1747    4.5106   -0.5306 H   0  0  0  0  0  0  0  0  0  0  0  0
   37.7854    4.5514   -0.5368 H   0  0  0  0  0  0  0  0  0  0  0  0
   39.6945    2.6652   -0.3211 H   0  0  0  0  0  0  0  0  0  0  0  0
   39.6828   -2.5695    0.2790 H   0  0  0  0  0  0  0  0  0  0  0  0
   37.7654   -4.4463    0.5010 H   0  0  0  0  0  0  0  0  0  0  0  0
   35.1546   -4.3929    0.5011 H   0  0  0  0  0  0  0  0  0  0  0  0
   48.6115    0.0079   -0.0159 Zn  0  0  0  0  0  0  0  0  0  0  0  0
   46.1015   -3.4206    0.3735 C   0  0  0  0  0  0  0  0  0  0  0  0
   45.1418   -2.4695    0.2681 C   0  0  0  0  0  0  0  0  0  0  0  0
   45.8224   -1.2150    0.1229 C   0  0  0  0  0  0  0  0  0  0  0  0
   45.1748    0.0233   -0.0202 C   0  0  0  0  0  0  0  0  0  0  0  0
   45.8339    1.2558   -0.1620 C   0  0  0  0  0  0  0  0  0  0  0  0
   45.1648    2.5163   -0.3093 C   0  0  0  0  0  0  0  0  0  0  0  0
   46.1332    3.4586   -0.4128 C   0  0  0  0  0  0  0  0  0  0  0  0
   47.3894    2.7707   -0.3284 C   0  0  0  0  0  0  0  0  0  0  0  0
   47.1760    1.4329   -0.1775 N   0  0  0  0  0  0  0  0  0  0  0  0
   48.6271    3.3876   -0.3901 C   0  0  0  0  0  0  0  0  0  0  0  0
   49.8591    2.7608   -0.3134 C   0  0  0  0  0  0  0  0  0  0  0  0
   51.1217    3.4389   -0.3823 C   0  0  0  0  0  0  0  0  0  0  0  0
   52.0814    2.4881   -0.2749 C   0  0  0  0  0  0  0  0  0  0  0  0
   51.4007    1.2323   -0.1406 C   0  0  0  0  0  0  0  0  0  0  0  0
   50.0602    1.4208   -0.1656 N   0  0  0  0  0  0  0  0  0  0  0  0
   52.0484   -0.0073   -0.0101 C   0  0  0  0  0  0  0  0  0  0  0  0
   51.3895   -1.2411    0.1176 C   0  0  0  0  0  0  0  0  0  0  0  0
   52.0586   -2.5031    0.2527 C   0  0  0  0  0  0  0  0  0  0  0  0
   51.0900   -3.4453    0.3563 C   0  0  0  0  0  0  0  0  0  0  0  0
   49.8338   -2.7560    0.2841 C   0  0  0  0  0  0  0  0  0  0  0  0
   50.0472   -1.4177    0.1380 N   0  0  0  0  0  0  0  0  0  0  0  0
   48.5960   -3.3718    0.3569 C   0  0  0  0  0  0  0  0  0  0  0  0
   47.3640   -2.7439    0.2924 C   0  0  0  0  0  0  0  0  0  0  0  0
   47.1629   -1.4042    0.1415 N   0  0  0  0  0  0  0  0  0  0  0  0
   45.9802   -4.4797    0.4946 H   0  0  0  0  0  0  0  0  0  0  0  0
   44.0757   -2.5884    0.2852 H   0  0  0  0  0  0  0  0  0  0  0  0
   44.0998    2.6447   -0.3287 H   0  0  0  0  0  0  0  0  0  0  0  0
   46.0218    4.5188   -0.5346 H   0  0  0  0  0  0  0  0  0  0  0  0
   48.6322    4.4622   -0.5099 H   0  0  0  0  0  0  0  0  0  0  0  0
   51.2429    4.4987   -0.4979 H   0  0  0  0  0  0  0  0  0  0  0  0
   53.1475    2.6078   -0.2852 H   0  0  0  0  0  0  0  0  0  0  0  0
   53.1236   -2.6323    0.2660 H   0  0  0  0  0  0  0  0  0  0  0  0
   51.2014   -4.5063    0.4714 H   0  0  0  0  0  0  0  0  0  0  0  0
   48.5912   -4.4465    0.4759 H   0  0  0  0  0  0  0  0  0  0  0  0
  2  3  2  0  0  0  0
  3  4  1  0  0  0  0
  4  5  4  0  0  0  0
  5  6  4  0  0  0  0
  6  7  1  0  0  0  0
  7  8  2  0  0  0  0
  8  9  1  0  0  0  0
  1 10  1  0  0  0  0
  6 10  4  0  0  0  0
  9 10  4  0  0  0  0
  9 11  4  0  0  0  0
 11 12  4  0  0  0  0
 12 13  1  0  0  0  0
 13 14  2  0  0  0  0
 14 15  1  0  0  0  0
  1 16  1  0  0  0  0
 12 16  4  0  0  0  0
 15 16  4  0  0  0  0
 15 17  4  0  0  0  0
 17 18  4  0  0  0  0
 18 19  1  0  0  0  0
 19 20  2  0  0  0  0
 20 21  1  0  0  0  0
  1 22  1  0  0  0  0
 18 22  4  0  0  0  0
 21 22  4  0  0  0  0
 21 23  4  0  0  0  0
  2 24  1  0  0  0  0
 23 24  4  0  0  0  0
  1 25  1  0  0  0  0
  4 25  4  0  0  0  0
 24 25  4  0  0  0  0
  2 26  1  0  0  0  0
  3 27  1  0  0  0  0
  7 28  1  0  0  0  0
  8 29  1  0  0  0  0
 11 30  1  0  0  0  0
 13 31  1  0  0  0  0
 14 32  1  0  0  0  0
 17 33  1  0  0  0  0
 19 34  1  0  0  0  0
 20 35  1  0  0  0  0
 23 36  1  0  0  0  0
 38 39  2  0  0  0  0
 39 40  1  0  0  0  0
 40 41  4  0  0  0  0
 41 42  4  0  0  0  0
 42 43  1  0  0  0  0
 43 44  2  0  0  0  0
 44 45  1  0  0  0  0
 37 46  1  0  0  0  0
 42 46  4  0  0  0  0
 45 46  4  0  0  0  0
 45 47  4  0  0  0  0
 47 48  4  0  0  0  0
 48 49  1  0  0  0  0
 49 50  2  0  0  0  0
 50 51  1  0  0  0  0
 37 52  1  0  0  0  0
 48 52  4  0  0  0  0
 51 52  4  0  0  0  0
 51 53  4  0  0  0  0
 53 54  4  0  0  0  0
 54 55  1  0  0  0  0
 55 56  2  0  0  0  0
 56 57  1  0  0  0  0
 37 58  1  0  0  0  0
 54 58  4  0  0  0  0
 57 58  4  0  0  0  0
 57 59  4  0  0  0  0
 38 60  1  0  0  0  0
 59 60  4  0  0  0  0
 37 61  1  0  0  0  0
 40 61  4  0  0  0  0
 60 61  4  0  0  0  0
 38 62  1  0  0  0  0
 39 63  1  0  0  0  0
 43 64  1  0  0  0  0
 44 65  1  0  0  0  0
 47 66  1  0  0  0  0
 49 67  1  0  0  0  0
 50 68  1  0  0  0  0
 53 69  1  0  0  0  0
 55 70  1  0  0  0  0
 56 71  1  0  0  0  0
 59 72  1  0  0  0  0
  5 73  1  0  0  0  0
 73 74  3  0  0  0  0
 74 75  4  0  0  0  0
 75 76  3  0  0  0  0
 77 78  3  0  0  0  0
 78 79  4  0  0  0  0
 79 80  3  0  0  0  0
 81 82  3  0  0  0  0
 82 83  4  0  0  0  0
 41 84  1  0  0  0  0
 83 84  3  0  0  0  0
 86 87  2  0  0  0  0
 87 88  1  0  0  0  0
 76 89  1  0  0  0  0
 88 89  4  0  0  0  0
 89 90  4  0  0  0  0
 90 91  1  0  0  0  0
 91 92  2  0  0  0  0
 92 93  1  0  0  0  0
 85 94  1  0  0  0  0
 90 94  4  0  0  0  0
 93 94  4  0  0  0  0
 93 95  4  0  0  0  0
 95 96  4  0  0  0  0
 96 97  1  0  0  0  0
 97 98  2  0  0  0  0
 98 99  1  0  0  0  0
 85100  1  0  0  0  0
 96100  4  0  0  0  0
 99100  4  0  0  0  0
 77101  1  0  0  0  0
 99101  4  0  0  0  0
101102  4  0  0  0  0
102103  1  0  0  0  0
103104  2  0  0  0  0
104105  1  0  0  0  0
 85106  1  0  0  0  0
102106  4  0  0  0  0
105106  4  0  0  0  0
105107  4  0  0  0  0
 86108  1  0  0  0  0
107108  4  0  0  0  0
 85109  1  0  0  0  0
 88109  4  0  0  0  0
108109  4  0  0  0  0
 86110  1  0  0  0  0
 87111  1  0  0  0  0
 91112  1  0  0  0  0
 92113  1  0  0  0  0
 95114  1  0  0  0  0
 97115  1  0  0  0  0
 98116  1  0  0  0  0
103117  1  0  0  0  0
104118  1  0  0  0  0
107119  1  0  0  0  0
121122  2  0  0  0  0
122123  1  0  0  0  0
 80124  1  0  0  0  0
123124  4  0  0  0  0
124125  4  0  0  0  0
125126  1  0  0  0  0
126127  2  0  0  0  0
127128  1  0  0  0  0
120129  1  0  0  0  0
125129  4  0  0  0  0
128129  4  0  0  0  0
128130  4  0  0  0  0
130131  4  0  0  0  0
131132  1  0  0  0  0
132133  2  0  0  0  0
133134  1  0  0  0  0
120135  1  0  0  0  0
131135  4  0  0  0  0
134135  4  0  0  0  0
 81136  1  0  0  0  0
134136  4  0  0  0  0
136137  4  0  0  0  0
137138  1  0  0  0  0
138139  2  0  0  0  0
139140  1  0  0  0  0
120141  1  0  0  0  0
137141  4  0  0  0  0
140141  4  0  0  0  0
140142  4  0  0  0  0
121143  1  0  0  0  0
142143  4  0  0  0  0
120144  1  0  0  0  0
123144  4  0  0  0  0
143144  4  0  0  0  0
121145  1  0  0  0  0
122146  1  0  0  0  0
126147  1  0  0  0  0
127148  1  0  0  0  0
130149  1  0  0  0  0
132150  1  0  0  0  0
133151  1  0  0  0  0
138152  1  0  0  0  0
139153  1  0  0  0  0
142154  1  0  0  0  0
M  END
