78

C 11.271975 3.506127 0.787755
C 12.161953 2.565867 0.589559
C 11.500452 1.305793 0.288753
C 11.858890 0.000130 0.000071
C 11.033712 -1.130941 -0.085145
C 11.489277 -2.339666 0.496162
C 10.516583 -3.272212 0.296007
C 9.485489 -2.604511 -0.406981
N 9.822214 -1.323652 -0.623895
C 8.327528 -3.330627 -0.738698
C 7.009427 -2.887931 -0.625163
C 5.697081 -3.490065 -0.722142
C 4.775453 -2.543417 -0.516057
C 5.472339 -1.297587 -0.279326
N 6.793412 -1.577339 -0.359012
C 5.073097 0.004410 -0.011323
C 5.905709 1.141086 0.064586
C 5.471566 2.343076 -0.545555
C 6.467079 3.259464 -0.353599
C 7.481230 2.586221 0.370332
N 7.116033 1.318399 0.609156
C 8.650871 3.293178 0.691832
C 9.966125 2.889653 0.621816
N 10.155747 1.578549 0.325414
H 11.439240 4.534670 1.026345
H 13.232212 2.689205 0.638578
H 12.449798 -2.525368 1.014739
H 10.553464 -4.328822 0.621334
H 9.218929 -0.556241 -1.171414
H 8.415919 -4.366054 -1.117044
H 5.498406 -4.550766 -0.930887
H 3.706043 -2.735351 -0.535290
H 3.998154 0.093680 0.126422
H 4.517912 2.534634 -1.074352
H 6.452658 4.309693 -0.700040
H 7.709358 0.560956 1.181152
H 8.582364 4.350582 1.048547
C 12.776117 -0.002411 -0.001317
C 13.984094 0.005044 0.000378
C 15.402862 0.005741 0.005515
C 16.618378 -0.002411 -0.001317
C 23.699511 3.501884 0.642363
C 24.656496 2.612088 0.470359
C 23.969948 1.350050 0.248183
C 24.336940 0.026985 0.002802
C 23.513286 -1.107254 -0.037306
C 23.967345 -2.285142 0.605997
C 22.987460 -3.221246 0.441473
C 21.964133 -2.584118 -0.298388
N 22.305685 -1.318029 -0.574776
C 20.791511 -3.313440 -0.597643
C 19.486719 -2.871006 -0.528180
C 18.199950 -3.521158 -0.671254
C 17.262073 -2.596196 -0.504846
C 17.895727 -1.319781 -0.249519
N 19.232126 -1.567038 -0.279369
C 17.488229 0.000130 0.000071
C 18.328538 1.127072 0.048526
C 17.885478 2.313244 -0.583273
C 18.886738 3.216758 -0.405232
C 19.913470 2.565446 0.327748
N 19.544705 1.304307 0.588348
C 21.068912 3.292156 0.630936
C 22.399419 2.863736 0.539948
N 22.647444 1.561541 0.300602
H 23.860421 4.568217 0.834589
H 25.727982 2.735716 0.481272
H 25.437300 -0.051798 -0.151970
H 24.924987 -2.444217 1.137745
H 23.018334 -4.261811 0.817035
H 21.710555 -0.576318 -1.164820
H 20.868508 -4.360721 -0.910103
H 17.973602 -4.559619 -0.875096
H 16.192589 -2.736083 -0.546149
H 16.934178 2.500319 -1.110369
H 18.876549 4.263039 -0.768140
H 20.132464 0.550250 1.166526
H 21.028269 4.346858 0.974545
