206

C 28.545002 3.508501 0.788460
C 29.434979 2.568242 0.590264
C 28.773478 1.308167 0.289457
C 29.131916 0.002505 0.000776
C 28.306738 -1.128567 -0.084440
C 28.762303 -2.337291 0.496867
C 27.789609 -3.269838 0.296712
C 26.758515 -2.602137 -0.406276
N 27.095240 -1.321277 -0.623190
C 25.600555 -3.328252 -0.737993
C 24.282454 -2.885556 -0.624458
C 22.970107 -3.487690 -0.721437
C 22.048480 -2.541043 -0.515352
C 22.745365 -1.295212 -0.278621
N 24.066439 -1.574964 -0.358307
C 22.346123 0.006785 -0.010618
C 23.178736 1.143461 0.065290
C 22.744592 2.345451 -0.544850
C 23.740105 3.261839 -0.352894
C 24.754256 2.588596 0.371037
N 24.389060 1.320774 0.609861
C 25.923898 3.295552 0.692536
C 27.239151 2.892028 0.622521
N 27.428774 1.580924 0.326119
H 28.712266 4.537045 1.027049
H 30.505238 2.691579 0.639283
H 29.722825 -2.522994 1.015443
H 27.826491 -4.326447 0.622039
H 26.491955 -0.553867 -1.170709
H 25.688945 -4.363679 -1.116340
H 22.771432 -4.548391 -0.930182
H 20.979070 -2.732977 -0.534586
H 21.271180 0.096054 0.127126
H 21.790938 2.537008 -1.073648
H 23.725684 4.312068 -0.699336
H 24.982384 0.563330 1.181857
H 25.855390 4.352957 1.049252
C 88.809793 -3.495121 0.824830
C 87.919815 -2.556971 0.616880
C 88.581317 -1.300089 0.303002
C 88.222879 0.002505 0.000776
C 89.048057 1.132631 -0.096183
C 88.592491 2.347327 0.472539
C 89.565186 3.277745 0.262710
C 90.596280 2.602778 -0.433305
N 90.259555 1.319735 -0.636905
C 91.754240 3.325410 -0.772546
C 93.072341 2.883917 -0.654419
C 94.384688 3.485011 -0.757647
C 95.306315 2.540555 -0.541741
C 94.609430 1.297251 -0.292084
N 93.288356 1.576160 -0.374671
C 95.008671 -0.001893 -0.010573
C 94.176059 -1.137720 0.077137
C 94.610203 -2.345981 -0.520487
C 93.614690 -3.260326 -0.319024
C 92.600538 -2.579601 0.397876
N 92.965735 -1.309367 0.623519
C 91.430897 -3.283180 0.726700
C 90.115644 -2.880404 0.652497
N 89.926021 -1.572450 0.342494
H 88.642529 -4.521132 1.074089
H 86.849556 -2.679793 0.667177
H 87.631970 2.538406 0.989159
H 89.528304 4.337676 0.577046
H 90.862840 0.546680 -1.176424
H 91.665849 4.356852 -1.161626
H 94.583363 4.543487 -0.977397
H 96.375725 2.732279 -0.562967
H 96.083615 -0.089727 0.128091
H 95.563857 -2.543020 -1.047267
H 93.629111 -4.314097 -0.654539
H 92.372411 -0.546024 1.187618
H 91.499405 -4.336823 1.094379
C 32.048673 0.014305 0.005060
C 33.264206 -0.011038 -0.005419
C 34.685723 -0.032462 -0.009595
C 35.894284 -0.034673 -0.009490
C 37.315360 -0.015713 -0.010117
C 38.526502 0.014305 0.005060
C 47.641399 0.014305 0.005060
C 48.856932 -0.011038 -0.005419
C 50.278449 -0.032462 -0.009595
C 51.487011 -0.034673 -0.009490
C 52.908086 -0.015713 -0.010117
C 54.119228 0.014305 0.005060
C 63.234126 0.014305 0.005060
C 64.449659 -0.011038 -0.005419
C 65.871176 -0.032462 -0.009595
C 67.079737 -0.034673 -0.009490
C 68.500813 -0.015713 -0.010117
C 69.711955 0.014305 0.005060
C 78.826853 0.014305 0.005060
C 80.042385 -0.011038 -0.005419
C 81.463902 -0.032462 -0.009595
C 82.672464 -0.034673 -0.009490
C 84.093539 -0.015713 -0.010117
C 85.304682 0.014305 0.005060
C 40.290036 -3.594168 0.000235
C 39.415486 -2.599264 -0.010067
C 40.086949 -1.320481 0.003122
C 39.689918 -0.004895 -0.001656
C 40.501111 1.139428 -0.155783
C 40.022085 2.191945 -0.967848
C 41.009170 3.134697 -0.959317
C 42.056441 2.632902 -0.146514
N 41.717588 1.426535 0.326232
C 43.216819 3.410885 0.007836
C 44.537808 2.953012 -0.021557
C 45.850378 3.581145 -0.082685
C 46.764490 2.626081 -0.085268
C 46.090943 1.339208 -0.026079
N 44.778885 1.627806 0.008711
C 46.493227 -0.004895 -0.001656
C 45.661073 -1.118684 0.180625
C 46.101031 -2.150341 1.043936
C 45.102849 -3.073682 1.048557
C 44.079933 -2.593744 0.195127
N 44.447110 -1.412497 -0.315381
C 42.923024 -3.369152 0.038059
C 41.602249 -2.949674 0.021373
N 41.425858 -1.611470 0.022274
H 40.121516 -4.656336 -0.005168
H 38.327658 -2.785300 -0.027094
H 39.058007 2.267316 -1.502164
H 40.971023 4.105812 -1.491759
H 42.325267 0.789435 1.014861
H 43.161719 4.497147 0.151952
H 46.068804 4.649138 -0.121015
H 47.840805 2.772125 -0.124895
H 47.055041 -2.214753 1.601484
H 45.128268 -4.018999 1.623877
H 43.860034 -0.793041 -1.039031
H 42.983742 -4.480892 -0.076070
C 55.882762 -3.594168 0.000235
C 55.008212 -2.599264 -0.010067
C 55.679676 -1.320481 0.003122
C 55.282645 -0.004895 -0.001656
C 56.093837 1.139428 -0.155783
C 55.614811 2.191945 -0.967848
C 56.601897 3.134697 -0.959317
C 57.649168 2.632902 -0.146514
N 57.310315 1.426535 0.326232
C 58.809545 3.410885 0.007836
C 60.130534 2.953012 -0.021557
C 61.443104 3.581145 -0.082685
C 62.357217 2.626081 -0.085268
C 61.683670 1.339208 -0.026079
N 60.371612 1.627806 0.008711
C 62.085953 -0.004895 -0.001656
C 61.253799 -1.118684 0.180625
C 61.693758 -2.150341 1.043936
C 60.695576 -3.073682 1.048557
C 59.672660 -2.593744 0.195127
N 60.039837 -1.412497 -0.315381
C 58.515751 -3.369152 0.038059
C 57.194975 -2.949674 0.021373
N 57.018584 -1.611470 0.022274
H 55.714243 -4.656336 -0.005168
H 53.920384 -2.785300 -0.027094
H 54.650734 2.267316 -1.502164
H 56.563750 4.105812 -1.491759
H 57.917993 0.789435 1.014861
H 58.754446 4.497147 0.151952
H 61.661531 4.649138 -0.121015
H 63.433532 2.772125 -0.124895
H 62.647767 -2.214753 1.601484
H 60.720994 -4.018999 1.623877
H 59.452761 -0.793041 -1.039031
H 58.576469 -4.480892 -0.076070
C 71.475489 -3.594168 0.000235
C 70.600939 -2.599264 -0.010067
C 71.272402 -1.320481 0.003122
C 70.875371 -0.004895 -0.001656
C 71.686564 1.139428 -0.155783
C 71.207538 2.191945 -0.967848
C 72.194623 3.134697 -0.959317
C 73.241895 2.632902 -0.146514
N 72.903042 1.426535 0.326232
C 74.402272 3.410885 0.007836
C 75.723261 2.953012 -0.021557
C 77.035831 3.581145 -0.082685
C 77.949943 2.626081 -0.085268
C 77.276397 1.339208 -0.026079
N 75.964338 1.627806 0.008711
C 77.678680 -0.004895 -0.001656
C 76.846526 -1.118684 0.180625
C 77.286484 -2.150341 1.043936
C 76.288302 -3.073682 1.048557
C 75.265386 -2.593744 0.195127
N 75.632564 -1.412497 -0.315381
C 74.108477 -3.369152 0.038059
C 72.787702 -2.949674 0.021373
N 72.611311 -1.611470 0.022274
H 71.306969 -4.656336 -0.005168
H 69.513111 -2.785300 -0.027094
H 70.243460 2.267316 -1.502164
H 72.156477 4.105812 -1.491759
H 73.510720 0.789435 1.014861
H 74.347172 4.497147 0.151952
H 77.254258 4.649138 -0.121015
H 79.026258 2.772125 -0.124895
H 78.240494 -2.214753 1.601484
H 76.313721 -4.018999 1.623877
H 75.045487 -0.793041 -1.039031
H 74.169195 -4.480892 -0.076070
