80

C 5.388169 3.388929 0.976031
C 4.458005 2.476765 0.632801
C 5.191893 1.282854 0.252687
C 4.565255 0.094132 -0.170359
C 5.251297 -1.067730 -0.559544
C 4.686597 -2.289182 -1.015024
C 5.717899 -3.140459 -1.289296
C 6.934371 -2.458439 -1.004344
N 6.600088 -1.211938 -0.569446
C 8.217577 -2.968356 -1.135896
C 9.414016 -2.325817 -0.849217
C 10.709929 -2.969140 -1.012744
C 11.630143 -2.061540 -0.637799
C 10.889571 -0.870542 -0.250986
N 9.561309 -1.065793 -0.390464
C 11.499317 0.295210 0.195254
C 10.838505 1.455630 0.567530
C 11.404107 2.679992 1.025502
C 10.377423 3.543222 1.269798
C 9.157977 2.868854 0.968938
N 9.488554 1.618569 0.551381
C 7.875409 3.384156 1.081633
C 6.677815 2.740986 0.805261
N 6.517723 1.470592 0.364287
H 5.251851 4.398299 1.313826
H 3.388993 2.567186 0.624157
H 3.635221 -2.476520 -1.115980
H 5.652715 -4.147160 -1.653745
H 7.248026 -0.485088 -0.288296
H 8.290738 -3.984625 -1.497896
H 10.852533 -3.972954 -1.364790
H 12.699373 -2.150584 -0.612592
H 12.578066 0.298976 0.254994
H 12.454447 2.861420 1.146294
H 10.443677 4.553227 1.625462
H 8.843084 0.892899 0.263642
H 7.800797 4.405067 1.430323
C 3.168852 0.059727 -0.200178
C 1.949349 0.028739 -0.205236
C 0.613026 -0.001965 -0.203532
C -0.610661 -0.034222 -0.189234
C -1.946971 -0.062315 -0.173868
C -3.166319 -0.091628 -0.150858
C -10.682073 2.564918 -1.924002
C -11.612123 1.770913 -1.362143
C -10.881777 0.735588 -0.647112
C -11.503210 -0.279342 0.069616
C -10.852689 -1.288949 0.761880
C -11.431132 -2.353953 1.510249
C -10.411665 -3.108471 2.010460
C -9.183950 -2.524328 1.581534
N -9.502559 -1.433568 0.836158
C -7.904993 -2.979561 1.864738
C -6.700310 -2.423210 1.460172
C -5.415557 -2.996373 1.825010
C -4.476867 -2.202780 1.273464
C -5.200647 -1.153967 0.577261
N -6.528868 -1.312449 0.704718
C -4.563128 -0.113676 -0.126781
C -5.238191 0.910275 -0.810949
C -4.660600 1.982607 -1.542304
C -5.683490 2.730043 -2.050680
C -6.907627 2.130924 -1.640071
N -6.586107 1.037985 -0.893861
C -8.186633 2.574149 -1.942644
C -9.390616 2.008493 -1.546572
N -9.550004 0.909051 -0.781251
H -10.815390 3.439093 -2.532237
H -12.681961 1.844905 -1.404520
H -12.583464 -0.282964 0.088363
H -12.484696 -2.509031 1.639445
H -10.487818 -3.988036 2.620031
H -8.848824 -0.803206 0.387528
H -7.839930 -3.871540 2.472637
H -5.287940 -3.880333 2.419870
H -3.407990 -2.286833 1.312958
H -3.606695 2.147187 -1.655839
H -5.607879 3.613937 -2.653670
H -7.242552 0.400318 -0.458448
H -8.249801 3.462745 -2.555513
