115

Co 14.501349 -0.001048 -0.011527
C 16.993803 -3.410744 0.109126
C 17.946758 -2.451444 0.102108
C 17.258164 -1.198454 0.041209
C 17.923843 0.027926 -0.009309
C 17.237662 1.243183 -0.049621
C 17.905155 2.508315 -0.091091
C 16.936437 3.451617 -0.075567
C 15.688357 2.752472 -0.028000
N 15.883754 1.396159 -0.021424
C 14.469744 3.393819 0.023082
C 13.263364 2.728970 0.050146
C 11.998096 3.402046 0.091972
C 11.050779 2.439921 0.062738
C 11.744698 1.186263 0.006155
N 13.098565 1.372429 0.008394
C 11.099097 -0.029670 -0.060071
C 11.766586 -1.234965 -0.097192
C 11.095365 -2.500886 -0.155211
C 12.058512 -3.447377 -0.133272
C 13.310722 -2.752445 -0.064761
N 13.122688 -1.398367 -0.052573
C 14.527117 -3.396154 -0.000141
C 15.734237 -2.733457 0.050104
N 15.906993 -1.374362 0.019179
H 17.110262 -4.476347 0.146929
H 19.013685 -2.556486 0.133189
H 18.970132 2.631540 -0.123471
H 17.035062 4.519539 -0.093523
H 14.461009 4.473124 0.036804
H 11.878587 4.467379 0.134169
H 9.982918 2.542068 0.076395
H 10.020013 -0.038657 -0.078239
H 10.030363 -2.621222 -0.202392
H 11.957745 -4.515137 -0.159192
H 14.536573 -4.475511 0.007044
Co 41.350003 0.030559 -0.008657
C 38.864033 3.383443 0.652099
C 37.908953 2.441920 0.479886
C 38.595286 1.211957 0.226644
C 37.927082 0.009044 -0.009545
C 38.610283 -1.187642 -0.233421
C 37.939480 -2.429935 -0.467233
C 38.906183 -3.364061 -0.612962
C 40.156294 -2.681753 -0.469721
N 39.964079 -1.344175 -0.242379
C 41.374042 -3.322040 -0.546998
C 42.582294 -2.670978 -0.427577
C 43.846232 -3.341352 -0.521151
C 44.795573 -2.389841 -0.389789
C 44.104207 -1.145861 -0.213916
N 42.749932 -1.328252 -0.232508
C 44.752609 0.060373 -0.058478
C 44.088187 1.253485 0.127470
C 44.762895 2.506637 0.302979
C 43.801936 3.437216 0.488655
C 42.547571 2.746035 0.421704
N 42.732279 1.410641 0.194561
C 41.331917 3.374721 0.579801
C 40.122610 2.719097 0.499081
N 39.947065 1.384027 0.244847
H 38.749724 4.429367 0.860538
H 36.841999 2.544792 0.517099
H 36.873952 -2.545778 -0.507914
H 38.805027 -4.415377 -0.800064
H 41.380415 -4.388192 -0.715646
H 43.963470 -4.397323 -0.670008
H 45.863261 -2.493345 -0.406296
H 45.831676 0.070272 -0.077357
H 45.828499 2.629575 0.284991
H 43.905405 4.491888 0.655783
H 41.324887 4.437014 0.771211
C 19.321989 0.038271 -0.012163
C 20.539545 0.042128 -0.014839
C 21.882168 0.044555 -0.013468
C 23.099846 0.042952 -0.012165
C 32.750818 0.001994 -0.017796
C 33.968392 -0.000725 -0.019058
C 35.311191 -0.000901 -0.018414
C 36.528669 0.002295 -0.014888
Co 27.925274 0.023694 -0.004485
C 25.442881 -3.378789 0.356985
C 24.485493 -2.429409 0.253994
C 25.169240 -1.179503 0.119948
C 24.497519 0.037980 -0.009148
C 25.179615 1.250215 -0.132026
C 24.506567 2.506491 -0.260372
C 25.472044 3.448859 -0.351608
C 26.722763 2.757288 -0.278720
N 26.532706 1.406776 -0.144201
C 27.939760 3.399530 -0.339739
C 29.151177 2.747222 -0.274430
C 30.407806 3.428514 -0.342411
C 31.365179 2.477915 -0.251407
C 30.681365 1.226889 -0.128303
N 29.329624 1.394888 -0.142414
C 31.352925 0.007940 -0.014475
C 30.670913 -1.204480 0.106128
C 31.343995 -2.461169 0.230703
C 30.378559 -3.402118 0.335752
C 29.127834 -2.709541 0.272949
N 29.317814 -1.359775 0.131221
C 27.910883 -3.350372 0.348212
C 26.699462 -2.698042 0.283358
N 26.520946 -1.346987 0.138694
H 25.331345 -4.439435 0.471306
H 23.418649 -2.539036 0.265477
H 23.440678 2.624771 -0.275504
H 25.369613 4.511217 -0.458295
H 27.944416 4.473786 -0.446010
H 30.519380 4.490200 -0.446540
H 32.432034 2.587347 -0.264800
H 32.409874 -2.580484 0.236070
H 30.481016 -4.464158 0.445545
H 27.906278 -4.423830 0.462244
