
  xtb     11182118413D
 xtb: 6.4.1 (bd6e46d)
111134  0     0  0            999 V2000
   17.0326    0.0001   -0.0014 Zn  0  0  0  0  0  0  0  0  0  0  0  0
   19.5239   -3.0987    1.5486 C   0  0  0  0  0  0  0  0  0  0  0  0
   20.4883   -2.2432    1.1318 C   0  0  0  0  0  0  0  0  0  0  0  0
   19.8154   -1.1203    0.5434 C   0  0  0  0  0  0  0  0  0  0  0  0
   20.4684   -0.0119   -0.0174 C   0  0  0  0  0  0  0  0  0  0  0  0
   19.8172    1.1017   -0.5700 C   0  0  0  0  0  0  0  0  0  0  0  0
   20.4918    2.2226   -1.1603 C   0  0  0  0  0  0  0  0  0  0  0  0
   19.5295    3.0877   -1.5615 C   0  0  0  0  0  0  0  0  0  0  0  0
   18.2691    2.4900   -1.2227 C   0  0  0  0  0  0  0  0  0  0  0  0
   18.4755    1.2826   -0.6261 N   0  0  0  0  0  0  0  0  0  0  0  0
   17.0359    3.0675   -1.4754 C   0  0  0  0  0  0  0  0  0  0  0  0
   15.8014    2.5097   -1.1882 C   0  0  0  0  0  0  0  0  0  0  0  0
   14.5362    3.1312   -1.4720 C   0  0  0  0  0  0  0  0  0  0  0  0
   13.5778    2.2695   -1.0594 C   0  0  0  0  0  0  0  0  0  0  0  0
   14.2567    1.1211   -0.5219 C   0  0  0  0  0  0  0  0  0  0  0  0
   15.6010    1.2956   -0.6114 N   0  0  0  0  0  0  0  0  0  0  0  0
   13.6235    0.0065    0.0037 C   0  0  0  0  0  0  0  0  0  0  0  0
   14.2547   -1.1084    0.5307 C   0  0  0  0  0  0  0  0  0  0  0  0
   13.5733   -2.2515    1.0761 C   0  0  0  0  0  0  0  0  0  0  0  0
   14.5297   -3.1136    1.4926 C   0  0  0  0  0  0  0  0  0  0  0  0
   15.7964   -2.4985    1.2013 C   0  0  0  0  0  0  0  0  0  0  0  0
   15.5987   -1.2871    0.6180 N   0  0  0  0  0  0  0  0  0  0  0  0
   17.0293   -3.0613    1.4854 C   0  0  0  0  0  0  0  0  0  0  0  0
   18.2644   -2.4938    1.2195 C   0  0  0  0  0  0  0  0  0  0  0  0
   18.4733   -1.2911    0.6143 N   0  0  0  0  0  0  0  0  0  0  0  0
   19.6398   -4.0475    2.0362 H   0  0  0  0  0  0  0  0  0  0  0  0
   21.5527   -2.3414    1.2201 H   0  0  0  0  0  0  0  0  0  0  0  0
   21.5558    2.3131   -1.2607 H   0  0  0  0  0  0  0  0  0  0  0  0
   19.6472    4.0385   -2.0446 H   0  0  0  0  0  0  0  0  0  0  0  0
   17.0386    4.0409   -1.9459 H   0  0  0  0  0  0  0  0  0  0  0  0
   14.4169    4.0961   -1.9263 H   0  0  0  0  0  0  0  0  0  0  0  0
   12.5117    2.3831   -1.1065 H   0  0  0  0  0  0  0  0  0  0  0  0
   12.5425    0.0076    0.0043 H   0  0  0  0  0  0  0  0  0  0  0  0
   12.5069   -2.3612    1.1263 H   0  0  0  0  0  0  0  0  0  0  0  0
   14.4083   -4.0749    1.9538 H   0  0  0  0  0  0  0  0  0  0  0  0
   17.0289   -4.0317    1.9622 H   0  0  0  0  0  0  0  0  0  0  0  0
   38.8202    0.0438    0.0016 Zn  0  0  0  0  0  0  0  0  0  0  0  0
   36.3186    3.0646    1.6821 C   0  0  0  0  0  0  0  0  0  0  0  0
   35.3570    2.2236    1.2309 C   0  0  0  0  0  0  0  0  0  0  0  0
   36.0333    1.1284    0.5960 C   0  0  0  0  0  0  0  0  0  0  0  0
   35.3837    0.0422   -0.0102 C   0  0  0  0  0  0  0  0  0  0  0  0
   36.0389   -1.0449   -0.6092 C   0  0  0  0  0  0  0  0  0  0  0  0
   35.3682   -2.1427   -1.2456 C   0  0  0  0  0  0  0  0  0  0  0  0
   36.3336   -2.9863   -1.6836 C   0  0  0  0  0  0  0  0  0  0  0  0
   37.5918   -2.3982   -1.3212 C   0  0  0  0  0  0  0  0  0  0  0  0
   37.3811   -1.2178   -0.6741 N   0  0  0  0  0  0  0  0  0  0  0  0
   38.8272   -2.9590   -1.5997 C   0  0  0  0  0  0  0  0  0  0  0  0
   40.0597   -2.4080   -1.2918 C   0  0  0  0  0  0  0  0  0  0  0  0
   41.3270   -3.0109   -1.6047 C   0  0  0  0  0  0  0  0  0  0  0  0
   42.2825   -2.1628   -1.1583 C   0  0  0  0  0  0  0  0  0  0  0  0
   41.5997   -1.0414   -0.5711 C   0  0  0  0  0  0  0  0  0  0  0  0
   40.2560   -1.2185   -0.6646 N   0  0  0  0  0  0  0  0  0  0  0  0
   42.2292    0.0529   -0.0007 C   0  0  0  0  0  0  0  0  0  0  0  0
   41.5944    1.1422    0.5734 C   0  0  0  0  0  0  0  0  0  0  0  0
   42.2719    2.2653    1.1635 C   0  0  0  0  0  0  0  0  0  0  0  0
   41.3125    3.1048    1.6175 C   0  0  0  0  0  0  0  0  0  0  0  0
   40.0480    2.4960    1.3044 C   0  0  0  0  0  0  0  0  0  0  0  0
   40.2499    1.3106    0.6713 N   0  0  0  0  0  0  0  0  0  0  0  0
   38.8130    3.0404    1.6142 C   0  0  0  0  0  0  0  0  0  0  0  0
   37.5800    2.4787    1.3270 C   0  0  0  0  0  0  0  0  0  0  0  0
   37.3750    1.3013    0.6728 N   0  0  0  0  0  0  0  0  0  0  0  0
   36.1997    3.9921    2.2085 H   0  0  0  0  0  0  0  0  0  0  0  0
   34.2923    2.3141    1.3240 H   0  0  0  0  0  0  0  0  0  0  0  0
   34.3045   -2.2333   -1.3488 H   0  0  0  0  0  0  0  0  0  0  0  0
   36.2192   -3.9164   -2.2063 H   0  0  0  0  0  0  0  0  0  0  0  0
   38.8280   -3.9118   -2.1108 H   0  0  0  0  0  0  0  0  0  0  0  0
   41.4496   -3.9551   -2.0999 H   0  0  0  0  0  0  0  0  0  0  0  0
   43.3489   -2.2692   -1.2131 H   0  0  0  0  0  0  0  0  0  0  0  0
   43.3102    0.0566   -0.0028 H   0  0  0  0  0  0  0  0  0  0  0  0
   43.3379    2.3781    1.2152 H   0  0  0  0  0  0  0  0  0  0  0  0
   41.4307    4.0472    2.1173 H   0  0  0  0  0  0  0  0  0  0  0  0
   38.8097    3.9901    2.1310 H   0  0  0  0  0  0  0  0  0  0  0  0
   21.8720   -0.0152   -0.0230 C   0  0  0  0  0  0  0  0  0  0  0  0
   23.0849   -0.0170   -0.0246 C   0  0  0  0  0  0  0  0  0  0  0  0
   32.7672    0.0379   -0.0211 C   0  0  0  0  0  0  0  0  0  0  0  0
   33.9801    0.0409   -0.0159 C   0  0  0  0  0  0  0  0  0  0  0  0
   27.9257    0.0101   -0.0291 Zn  0  0  0  0  0  0  0  0  0  0  0  0
   25.4529   -3.4625   -0.1862 C   0  0  0  0  0  0  0  0  0  0  0  0
   24.4832   -2.5164   -0.1643 C   0  0  0  0  0  0  0  0  0  0  0  0
   25.1486   -1.2475   -0.0845 C   0  0  0  0  0  0  0  0  0  0  0  0
   24.4880   -0.0107   -0.0266 C   0  0  0  0  0  0  0  0  0  0  0  0
   25.1344    1.2338    0.0309 C   0  0  0  0  0  0  0  0  0  0  0  0
   24.4541    2.4944    0.1154 C   0  0  0  0  0  0  0  0  0  0  0  0
   25.4124    3.4521    0.1359 C   0  0  0  0  0  0  0  0  0  0  0  0
   26.6751    2.7738    0.0710 C   0  0  0  0  0  0  0  0  0  0  0  0
   26.4751    1.4270    0.0141 N   0  0  0  0  0  0  0  0  0  0  0  0
   27.9057    3.4076    0.0612 C   0  0  0  0  0  0  0  0  0  0  0  0
   29.1440    2.7902    0.0181 C   0  0  0  0  0  0  0  0  0  0  0  0
   30.3984    3.4862   -0.0092 C   0  0  0  0  0  0  0  0  0  0  0  0
   31.3682    2.5404   -0.0379 C   0  0  0  0  0  0  0  0  0  0  0  0
   30.7032    1.2690   -0.0210 C   0  0  0  0  0  0  0  0  0  0  0  0
   29.3602    1.4449    0.0037 N   0  0  0  0  0  0  0  0  0  0  0  0
   31.3640    0.0309   -0.0250 C   0  0  0  0  0  0  0  0  0  0  0  0
   30.7174   -1.2149   -0.0312 C   0  0  0  0  0  0  0  0  0  0  0  0
   31.3974   -2.4783   -0.0107 C   0  0  0  0  0  0  0  0  0  0  0  0
   30.4391   -3.4357   -0.0419 C   0  0  0  0  0  0  0  0  0  0  0  0
   29.1766   -2.7547   -0.0736 C   0  0  0  0  0  0  0  0  0  0  0  0
   29.3767   -1.4069   -0.0602 N   0  0  0  0  0  0  0  0  0  0  0  0
   27.9460   -3.3874   -0.1168 C   0  0  0  0  0  0  0  0  0  0  0  0
   26.7076   -2.7688   -0.1261 C   0  0  0  0  0  0  0  0  0  0  0  0
   26.4915   -1.4245   -0.0711 N   0  0  0  0  0  0  0  0  0  0  0  0
   25.3434   -4.5285   -0.2409 H   0  0  0  0  0  0  0  0  0  0  0  0
   23.4197   -2.6474   -0.2102 H   0  0  0  0  0  0  0  0  0  0  0  0
   23.3894    2.6127    0.1663 H   0  0  0  0  0  0  0  0  0  0  0  0
   25.2901    4.5165    0.1932 H   0  0  0  0  0  0  0  0  0  0  0  0
   27.8991    4.4884    0.0904 H   0  0  0  0  0  0  0  0  0  0  0  0
   30.5076    4.5536   -0.0097 H   0  0  0  0  0  0  0  0  0  0  0  0
   32.4316    2.6739   -0.0805 H   0  0  0  0  0  0  0  0  0  0  0  0
   32.4620   -2.5991    0.0366 H   0  0  0  0  0  0  0  0  0  0  0  0
   30.5613   -4.5017   -0.0395 H   0  0  0  0  0  0  0  0  0  0  0  0
   27.9529   -4.4683   -0.1445 H   0  0  0  0  0  0  0  0  0  0  0  0
  2  3  2  0  0  0  0
  3  4  1  0  0  0  0
  4  5  4  0  0  0  0
  5  6  4  0  0  0  0
  6  7  1  0  0  0  0
  7  8  2  0  0  0  0
  8  9  1  0  0  0  0
  1 10  1  0  0  0  0
  6 10  4  0  0  0  0
  9 10  4  0  0  0  0
  9 11  4  0  0  0  0
 11 12  4  0  0  0  0
 12 13  1  0  0  0  0
 13 14  2  0  0  0  0
 14 15  1  0  0  0  0
  1 16  1  0  0  0  0
 12 16  4  0  0  0  0
 15 16  4  0  0  0  0
 15 17  4  0  0  0  0
 17 18  4  0  0  0  0
 18 19  1  0  0  0  0
 19 20  2  0  0  0  0
 20 21  1  0  0  0  0
  1 22  1  0  0  0  0
 18 22  4  0  0  0  0
 21 22  4  0  0  0  0
 21 23  4  0  0  0  0
  2 24  1  0  0  0  0
 23 24  4  0  0  0  0
  1 25  1  0  0  0  0
  4 25  4  0  0  0  0
 24 25  4  0  0  0  0
  2 26  1  0  0  0  0
  3 27  1  0  0  0  0
  7 28  1  0  0  0  0
  8 29  1  0  0  0  0
 11 30  1  0  0  0  0
 13 31  1  0  0  0  0
 14 32  1  0  0  0  0
 17 33  1  0  0  0  0
 19 34  1  0  0  0  0
 20 35  1  0  0  0  0
 23 36  1  0  0  0  0
 38 39  2  0  0  0  0
 39 40  1  0  0  0  0
 40 41  4  0  0  0  0
 41 42  4  0  0  0  0
 42 43  1  0  0  0  0
 43 44  2  0  0  0  0
 44 45  1  0  0  0  0
 37 46  1  0  0  0  0
 42 46  4  0  0  0  0
 45 46  4  0  0  0  0
 45 47  4  0  0  0  0
 47 48  4  0  0  0  0
 48 49  1  0  0  0  0
 49 50  2  0  0  0  0
 50 51  1  0  0  0  0
 37 52  1  0  0  0  0
 48 52  4  0  0  0  0
 51 52  4  0  0  0  0
 51 53  4  0  0  0  0
 53 54  4  0  0  0  0
 54 55  1  0  0  0  0
 55 56  2  0  0  0  0
 56 57  1  0  0  0  0
 37 58  1  0  0  0  0
 54 58  4  0  0  0  0
 57 58  4  0  0  0  0
 57 59  4  0  0  0  0
 38 60  1  0  0  0  0
 59 60  4  0  0  0  0
 37 61  1  0  0  0  0
 40 61  4  0  0  0  0
 60 61  4  0  0  0  0
 38 62  1  0  0  0  0
 39 63  1  0  0  0  0
 43 64  1  0  0  0  0
 44 65  1  0  0  0  0
 47 66  1  0  0  0  0
 49 67  1  0  0  0  0
 50 68  1  0  0  0  0
 53 69  1  0  0  0  0
 55 70  1  0  0  0  0
 56 71  1  0  0  0  0
 59 72  1  0  0  0  0
  5 73  1  0  0  0  0
 73 74  3  0  0  0  0
 41 76  1  0  0  0  0
 75 76  3  0  0  0  0
 78 79  2  0  0  0  0
 79 80  1  0  0  0  0
 74 81  1  0  0  0  0
 80 81  4  0  0  0  0
 81 82  4  0  0  0  0
 82 83  1  0  0  0  0
 83 84  2  0  0  0  0
 84 85  1  0  0  0  0
 77 86  1  0  0  0  0
 82 86  4  0  0  0  0
 85 86  4  0  0  0  0
 85 87  4  0  0  0  0
 87 88  4  0  0  0  0
 88 89  1  0  0  0  0
 89 90  2  0  0  0  0
 90 91  1  0  0  0  0
 77 92  1  0  0  0  0
 88 92  4  0  0  0  0
 91 92  4  0  0  0  0
 75 93  1  0  0  0  0
 91 93  4  0  0  0  0
 93 94  4  0  0  0  0
 94 95  1  0  0  0  0
 95 96  2  0  0  0  0
 96 97  1  0  0  0  0
 77 98  1  0  0  0  0
 94 98  4  0  0  0  0
 97 98  4  0  0  0  0
 97 99  4  0  0  0  0
 78100  1  0  0  0  0
 99100  4  0  0  0  0
 77101  1  0  0  0  0
 80101  4  0  0  0  0
100101  4  0  0  0  0
 78102  1  0  0  0  0
 79103  1  0  0  0  0
 83104  1  0  0  0  0
 84105  1  0  0  0  0
 87106  1  0  0  0  0
 89107  1  0  0  0  0
 90108  1  0  0  0  0
 95109  1  0  0  0  0
 96110  1  0  0  0  0
 99111  1  0  0  0  0
M  END
