
  xtb     11182122323D
 xtb: 6.4.1 (bd6e46d)
259314  0     0  0            999 V2000
   51.0747    0.0547   -0.0047 Zn  0  0  0  0  0  0  0  0  0  0  0  0
   53.5837   -3.2135    1.1085 C   0  0  0  0  0  0  0  0  0  0  0  0
   54.5433   -2.3145    0.7825 C   0  0  0  0  0  0  0  0  0  0  0  0
   53.8636   -1.1140    0.3859 C   0  0  0  0  0  0  0  0  0  0  0  0
   54.5099    0.0578   -0.0355 C   0  0  0  0  0  0  0  0  0  0  0  0
   53.8538    1.2261   -0.4510 C   0  0  0  0  0  0  0  0  0  0  0  0
   54.5241    2.4254   -0.8668 C   0  0  0  0  0  0  0  0  0  0  0  0
   53.5571    3.3200   -1.1832 C   0  0  0  0  0  0  0  0  0  0  0  0
   52.2990    2.6673   -0.9549 C   0  0  0  0  0  0  0  0  0  0  0  0
   52.5111    1.3973   -0.5100 N   0  0  0  0  0  0  0  0  0  0  0  0
   51.0623    3.2585   -1.1536 C   0  0  0  0  0  0  0  0  0  0  0  0
   49.8311    2.6675   -0.9243 C   0  0  0  0  0  0  0  0  0  0  0  0
   48.5627    3.3120   -1.1321 C   0  0  0  0  0  0  0  0  0  0  0  0
   47.6091    2.4134   -0.7932 C   0  0  0  0  0  0  0  0  0  0  0  0
   48.2942    1.2187   -0.3786 C   0  0  0  0  0  0  0  0  0  0  0  0
   49.6374    1.4022   -0.4678 N   0  0  0  0  0  0  0  0  0  0  0  0
   47.6670    0.0583    0.0448 C   0  0  0  0  0  0  0  0  0  0  0  0
   48.3038   -1.1044    0.4469 C   0  0  0  0  0  0  0  0  0  0  0  0
   47.6284   -2.2986    0.8786 C   0  0  0  0  0  0  0  0  0  0  0  0
   48.5894   -3.2016    1.1830 C   0  0  0  0  0  0  0  0  0  0  0  0
   49.8527   -2.5596    0.9387 C   0  0  0  0  0  0  0  0  0  0  0  0
   49.6486   -1.2919    0.4938 N   0  0  0  0  0  0  0  0  0  0  0  0
   51.0887   -3.1539    1.1308 C   0  0  0  0  0  0  0  0  0  0  0  0
   52.3205   -2.5616    0.9074 C   0  0  0  0  0  0  0  0  0  0  0  0
   52.5225   -1.2885    0.4664 N   0  0  0  0  0  0  0  0  0  0  0  0
   53.7047   -4.2236    1.4499 H   0  0  0  0  0  0  0  0  0  0  0  0
   55.6087   -2.4400    0.7913 H   0  0  0  0  0  0  0  0  0  0  0  0
   55.5889    2.5527   -0.8945 H   0  0  0  0  0  0  0  0  0  0  0  0
   53.6702    4.3278   -1.5339 H   0  0  0  0  0  0  0  0  0  0  0  0
   51.0592    4.2771   -1.5162 H   0  0  0  0  0  0  0  0  0  0  0  0
   48.4381    4.3164   -1.4888 H   0  0  0  0  0  0  0  0  0  0  0  0
   46.5426    2.5304   -0.8149 H   0  0  0  0  0  0  0  0  0  0  0  0
   46.5861    0.0600    0.0619 H   0  0  0  0  0  0  0  0  0  0  0  0
   46.5628   -2.4123    0.9340 H   0  0  0  0  0  0  0  0  0  0  0  0
   48.4730   -4.2071    1.5394 H   0  0  0  0  0  0  0  0  0  0  0  0
   51.0937   -4.1748    1.4869 H   0  0  0  0  0  0  0  0  0  0  0  0
  116.4588    0.0361   -0.0160 Zn  0  0  0  0  0  0  0  0  0  0  0  0
  113.9365    1.7792    2.9517 C   0  0  0  0  0  0  0  0  0  0  0  0
  112.9807    1.2800    2.1315 C   0  0  0  0  0  0  0  0  0  0  0  0
  113.6649    0.6590    1.0331 C   0  0  0  0  0  0  0  0  0  0  0  0
  113.0226    0.0268   -0.0427 C   0  0  0  0  0  0  0  0  0  0  0  0
  113.6845   -0.6004   -1.1093 C   0  0  0  0  0  0  0  0  0  0  0  0
  113.0206   -1.2235   -2.2189 C   0  0  0  0  0  0  0  0  0  0  0  0
  113.9917   -1.7135   -3.0266 C   0  0  0  0  0  0  0  0  0  0  0  0
  115.2463   -1.3841   -2.4115 C   0  0  0  0  0  0  0  0  0  0  0  0
  115.0278   -0.7050   -1.2508 N   0  0  0  0  0  0  0  0  0  0  0  0
  116.4855   -1.7149   -2.9340 C   0  0  0  0  0  0  0  0  0  0  0  0
  117.7141   -1.4004   -2.3778 C   0  0  0  0  0  0  0  0  0  0  0  0
  118.9854   -1.7590   -2.9459 C   0  0  0  0  0  0  0  0  0  0  0  0
  119.9352   -1.2666   -2.1171 C   0  0  0  0  0  0  0  0  0  0  0  0
  119.2449   -0.6062   -1.0420 C   0  0  0  0  0  0  0  0  0  0  0  0
  117.9024   -0.7053   -1.2254 N   0  0  0  0  0  0  0  0  0  0  0  0
  119.8673    0.0370    0.0154 C   0  0  0  0  0  0  0  0  0  0  0  0
  119.2254    0.6814    1.0604 C   0  0  0  0  0  0  0  0  0  0  0  0
  119.8955    1.3440    2.1468 C   0  0  0  0  0  0  0  0  0  0  0  0
  118.9304    1.8393    2.9561 C   0  0  0  0  0  0  0  0  0  0  0  0
  117.6700    1.4795    2.3649 C   0  0  0  0  0  0  0  0  0  0  0  0
  117.8797    0.7813    1.2181 N   0  0  0  0  0  0  0  0  0  0  0  0
  116.4312    1.7937    2.8981 C   0  0  0  0  0  0  0  0  0  0  0  0
  115.2021    1.4562    2.3562 C   0  0  0  0  0  0  0  0  0  0  0  0
  115.0053    0.7728    1.1941 N   0  0  0  0  0  0  0  0  0  0  0  0
  113.8112    2.3119    3.8746 H   0  0  0  0  0  0  0  0  0  0  0  0
  111.9153    1.3082    2.2517 H   0  0  0  0  0  0  0  0  0  0  0  0
  111.9570   -1.2597   -2.3535 H   0  0  0  0  0  0  0  0  0  0  0  0
  113.8835   -2.2446   -3.9526 H   0  0  0  0  0  0  0  0  0  0  0  0
  116.4933   -2.2675   -3.8633 H   0  0  0  0  0  0  0  0  0  0  0  0
  119.1143   -2.3126   -3.8562 H   0  0  0  0  0  0  0  0  0  0  0  0
  121.0023   -1.3335   -2.2087 H   0  0  0  0  0  0  0  0  0  0  0  0
  120.9483    0.0365    0.0257 H   0  0  0  0  0  0  0  0  0  0  0  0
  120.9607    1.4105    2.2588 H   0  0  0  0  0  0  0  0  0  0  0  0
  119.0422    2.3951    3.8672 H   0  0  0  0  0  0  0  0  0  0  0  0
  116.4213    2.3493    3.8255 H   0  0  0  0  0  0  0  0  0  0  0  0
   55.9139    0.0611   -0.0408 C   0  0  0  0  0  0  0  0  0  0  0  0
   57.1264    0.0621   -0.0418 C   0  0  0  0  0  0  0  0  0  0  0  0
   66.8090    0.0036   -0.0166 C   0  0  0  0  0  0  0  0  0  0  0  0
   68.0223    0.0078   -0.0129 C   0  0  0  0  0  0  0  0  0  0  0  0
   77.7083    0.0105   -0.0164 C   0  0  0  0  0  0  0  0  0  0  0  0
   78.9219    0.0162   -0.0200 C   0  0  0  0  0  0  0  0  0  0  0  0
   88.6096    0.0700   -0.0436 C   0  0  0  0  0  0  0  0  0  0  0  0
   89.8233    0.0723   -0.0385 C   0  0  0  0  0  0  0  0  0  0  0  0
   99.5100    0.0548    0.0175 C   0  0  0  0  0  0  0  0  0  0  0  0
  100.7233    0.0496    0.0140 C   0  0  0  0  0  0  0  0  0  0  0  0
  110.4062    0.0243   -0.0559 C   0  0  0  0  0  0  0  0  0  0  0  0
  111.6190    0.0240   -0.0518 C   0  0  0  0  0  0  0  0  0  0  0  0
   61.9673    0.0282   -0.0318 Zn  0  0  0  0  0  0  0  0  0  0  0  0
   59.4521   -1.9330    2.8019 C   0  0  0  0  0  0  0  0  0  0  0  0
   58.4936   -1.3825    2.0182 C   0  0  0  0  0  0  0  0  0  0  0  0
   59.1751   -0.6707    0.9749 C   0  0  0  0  0  0  0  0  0  0  0  0
   58.5300    0.0547   -0.0382 C   0  0  0  0  0  0  0  0  0  0  0  0
   59.1899    0.7722   -1.0472 C   0  0  0  0  0  0  0  0  0  0  0  0
   58.5232    1.4983   -2.0901 C   0  0  0  0  0  0  0  0  0  0  0  0
   59.4928    2.0328   -2.8711 C   0  0  0  0  0  0  0  0  0  0  0  0
   60.7482    1.6287   -2.3055 C   0  0  0  0  0  0  0  0  0  0  0  0
   60.5330    0.8663   -1.1970 N   0  0  0  0  0  0  0  0  0  0  0  0
   61.9866    1.9553   -2.8311 C   0  0  0  0  0  0  0  0  0  0  0  0
   63.2172    1.5729   -2.3255 C   0  0  0  0  0  0  0  0  0  0  0  0
   64.4793    1.9131   -2.9173 C   0  0  0  0  0  0  0  0  0  0  0  0
   65.4378    1.3629   -2.1335 C   0  0  0  0  0  0  0  0  0  0  0  0
   64.7587    0.6935   -1.0614 C   0  0  0  0  0  0  0  0  0  0  0  0
   63.4181    0.8260   -1.2034 N   0  0  0  0  0  0  0  0  0  0  0  0
   65.4062    0.0066   -0.0221 C   0  0  0  0  0  0  0  0  0  0  0  0
   64.7448   -0.6767    1.0106 C   0  0  0  0  0  0  0  0  0  0  0  0
   65.4095   -1.3619    2.0818 C   0  0  0  0  0  0  0  0  0  0  0  0
   64.4397   -1.9038    2.8575 C   0  0  0  0  0  0  0  0  0  0  0  0
   63.1853   -1.5415    2.2626 C   0  0  0  0  0  0  0  0  0  0  0  0
   63.4019   -0.7921    1.1452 N   0  0  0  0  0  0  0  0  0  0  0  0
   61.9469   -1.9036    2.7643 C   0  0  0  0  0  0  0  0  0  0  0  0
   60.7156   -1.5527    2.2377 C   0  0  0  0  0  0  0  0  0  0  0  0
   60.5161   -0.7875    1.1282 N   0  0  0  0  0  0  0  0  0  0  0  0
   59.3296   -2.5356    3.6812 H   0  0  0  0  0  0  0  0  0  0  0  0
   57.4278   -1.4320    2.1294 H   0  0  0  0  0  0  0  0  0  0  0  0
   57.4586    1.5680   -2.2025 H   0  0  0  0  0  0  0  0  0  0  0  0
   59.3829    2.6398   -3.7490 H   0  0  0  0  0  0  0  0  0  0  0  0
   61.9932    2.5615   -3.7264 H   0  0  0  0  0  0  0  0  0  0  0  0
   64.6009    2.4910   -3.8131 H   0  0  0  0  0  0  0  0  0  0  0  0
   66.5021    1.3852   -2.2640 H   0  0  0  0  0  0  0  0  0  0  0  0
   66.4727   -1.4005    2.2168 H   0  0  0  0  0  0  0  0  0  0  0  0
   64.5489   -2.4897    3.7497 H   0  0  0  0  0  0  0  0  0  0  0  0
   61.9407   -2.5123    3.6579 H   0  0  0  0  0  0  0  0  0  0  0  0
   72.8651    0.0110   -0.0108 Zn  0  0  0  0  0  0  0  0  0  0  0  0
   70.3741   -2.9916    1.7115 C   0  0  0  0  0  0  0  0  0  0  0  0
   69.4095   -2.1844    1.2075 C   0  0  0  0  0  0  0  0  0  0  0  0
   70.0803   -1.0692    0.6034 C   0  0  0  0  0  0  0  0  0  0  0  0
   69.4250    0.0098   -0.0109 C   0  0  0  0  0  0  0  0  0  0  0  0
   70.0794    1.0902   -0.6239 C   0  0  0  0  0  0  0  0  0  0  0  0
   69.4081    2.2055   -1.2272 C   0  0  0  0  0  0  0  0  0  0  0  0
   70.3724    3.0137   -1.7302 C   0  0  0  0  0  0  0  0  0  0  0  0
   71.6299    2.3936   -1.4263 C   0  0  0  0  0  0  0  0  0  0  0  0
   71.4211    1.2318   -0.7455 N   0  0  0  0  0  0  0  0  0  0  0  0
   72.8641    2.9029   -1.7925 C   0  0  0  0  0  0  0  0  0  0  0  0
   74.0982    2.3461   -1.5041 C   0  0  0  0  0  0  0  0  0  0  0  0
   75.3550    2.8936   -1.9269 C   0  0  0  0  0  0  0  0  0  0  0  0
   76.3196    2.0790   -1.4351 C   0  0  0  0  0  0  0  0  0  0  0  0
   75.6496    1.0412   -0.7054 C   0  0  0  0  0  0  0  0  0  0  0  0
   74.3080    1.2157   -0.7723 N   0  0  0  0  0  0  0  0  0  0  0  0
   76.3057    0.0095   -0.0145 C   0  0  0  0  0  0  0  0  0  0  0  0
   75.6507   -1.0218    0.6776 C   0  0  0  0  0  0  0  0  0  0  0  0
   76.3215   -2.0609    1.4047 C   0  0  0  0  0  0  0  0  0  0  0  0
   75.3572   -2.8740    1.8998 C   0  0  0  0  0  0  0  0  0  0  0  0
   74.0999   -2.3246    1.4809 C   0  0  0  0  0  0  0  0  0  0  0  0
   74.3090   -1.1946    0.7484 N   0  0  0  0  0  0  0  0  0  0  0  0
   72.8659   -2.8804    1.7722 C   0  0  0  0  0  0  0  0  0  0  0  0
   71.6314   -2.3712    1.4071 C   0  0  0  0  0  0  0  0  0  0  0  0
   71.4220   -1.2099    0.7255 N   0  0  0  0  0  0  0  0  0  0  0  0
   70.2592   -3.9203    2.2365 H   0  0  0  0  0  0  0  0  0  0  0  0
   68.3462   -2.3234    1.2224 H   0  0  0  0  0  0  0  0  0  0  0  0
   68.3447    2.3442   -1.2423 H   0  0  0  0  0  0  0  0  0  0  0  0
   70.2573    3.9428   -2.2544 H   0  0  0  0  0  0  0  0  0  0  0  0
   72.8640    3.8236   -2.3595 H   0  0  0  0  0  0  0  0  0  0  0  0
   75.4696    3.7788   -2.5224 H   0  0  0  0  0  0  0  0  0  0  0  0
   77.3823    2.1515   -1.5589 H   0  0  0  0  0  0  0  0  0  0  0  0
   77.3846   -2.1355    1.5240 H   0  0  0  0  0  0  0  0  0  0  0  0
   75.4722   -3.7594    2.4948 H   0  0  0  0  0  0  0  0  0  0  0  0
   72.8662   -3.8007    2.3397 H   0  0  0  0  0  0  0  0  0  0  0  0
   83.7653    0.0409   -0.0430 Zn  0  0  0  0  0  0  0  0  0  0  0  0
   81.2953   -3.3854    0.5412 C   0  0  0  0  0  0  0  0  0  0  0  0
   80.3248   -2.4599    0.3466 C   0  0  0  0  0  0  0  0  0  0  0  0
   80.9873   -1.1999    0.1683 C   0  0  0  0  0  0  0  0  0  0  0  0
   80.3244    0.0227   -0.0260 C   0  0  0  0  0  0  0  0  0  0  0  0
   80.9732    1.2518   -0.2275 C   0  0  0  0  0  0  0  0  0  0  0  0
   80.2961    2.5050   -0.3985 C   0  0  0  0  0  0  0  0  0  0  0  0
   81.2547    3.4398   -0.6067 C   0  0  0  0  0  0  0  0  0  0  0  0
   82.5151    2.7566   -0.5529 C   0  0  0  0  0  0  0  0  0  0  0  0
   82.3134    1.4310   -0.3093 N   0  0  0  0  0  0  0  0  0  0  0  0
   83.7448    3.3636   -0.7423 C   0  0  0  0  0  0  0  0  0  0  0  0
   84.9823    2.7471   -0.6721 C   0  0  0  0  0  0  0  0  0  0  0  0
   86.2344    3.4101   -0.8974 C   0  0  0  0  0  0  0  0  0  0  0  0
   87.2048    2.4835   -0.7085 C   0  0  0  0  0  0  0  0  0  0  0  0
   86.5432    1.2591   -0.3601 C   0  0  0  0  0  0  0  0  0  0  0  0
   85.2006    1.4387   -0.3597 N   0  0  0  0  0  0  0  0  0  0  0  0
   87.2070    0.0620   -0.0456 C   0  0  0  0  0  0  0  0  0  0  0  0
   86.5578   -1.1435    0.2674 C   0  0  0  0  0  0  0  0  0  0  0  0
   87.2344   -2.3599    0.6146 C   0  0  0  0  0  0  0  0  0  0  0  0
   86.2758   -3.2994    0.8000 C   0  0  0  0  0  0  0  0  0  0  0  0
   85.0156   -2.6516    0.5762 C   0  0  0  0  0  0  0  0  0  0  0  0
   85.2175   -1.3400    0.2662 N   0  0  0  0  0  0  0  0  0  0  0  0
   83.7858   -3.2831    0.6505 C   0  0  0  0  0  0  0  0  0  0  0  0
   82.5480   -2.6894    0.4732 C   0  0  0  0  0  0  0  0  0  0  0  0
   82.3301   -1.3656    0.2340 N   0  0  0  0  0  0  0  0  0  0  0  0
   81.1873   -4.4392    0.7117 H   0  0  0  0  0  0  0  0  0  0  0  0
   79.2627   -2.6030    0.3103 H   0  0  0  0  0  0  0  0  0  0  0  0
   79.2333    2.6379   -0.3475 H   0  0  0  0  0  0  0  0  0  0  0  0
   81.1340    4.4923   -0.7767 H   0  0  0  0  0  0  0  0  0  0  0  0
   83.7380    4.4216   -0.9654 H   0  0  0  0  0  0  0  0  0  0  0  0
   86.3420    4.4433   -1.1663 H   0  0  0  0  0  0  0  0  0  0  0  0
   88.2663    2.5984   -0.8069 H   0  0  0  0  0  0  0  0  0  0  0  0
   88.2970   -2.4614    0.7155 H   0  0  0  0  0  0  0  0  0  0  0  0
   86.3965   -4.3316    1.0668 H   0  0  0  0  0  0  0  0  0  0  0  0
   83.7930   -4.3417    0.8708 H   0  0  0  0  0  0  0  0  0  0  0  0
   94.6675    0.0648   -0.0019 Zn  0  0  0  0  0  0  0  0  0  0  0  0
   92.1739   -3.3579   -0.5001 C   0  0  0  0  0  0  0  0  0  0  0  0
   91.2108   -2.4083   -0.4192 C   0  0  0  0  0  0  0  0  0  0  0  0
   91.8813   -1.1584   -0.2038 C   0  0  0  0  0  0  0  0  0  0  0  0
   91.2259    0.0718   -0.0306 C   0  0  0  0  0  0  0  0  0  0  0  0
   91.8830    1.2994    0.1522 C   0  0  0  0  0  0  0  0  0  0  0  0
   91.2141    2.5525    0.3534 C   0  0  0  0  0  0  0  0  0  0  0  0
   92.1798    3.4977    0.4528 C   0  0  0  0  0  0  0  0  0  0  0  0
   93.4365    2.8181    0.3215 C   0  0  0  0  0  0  0  0  0  0  0  0
   93.2252    1.4828    0.1495 N   0  0  0  0  0  0  0  0  0  0  0  0
   94.6716    3.4425    0.3532 C   0  0  0  0  0  0  0  0  0  0  0  0
   95.9058    2.8229    0.2550 C   0  0  0  0  0  0  0  0  0  0  0  0
   97.1646    3.5110    0.2723 C   0  0  0  0  0  0  0  0  0  0  0  0
   98.1279    2.5632    0.1735 C   0  0  0  0  0  0  0  0  0  0  0  0
   97.4546    1.2982    0.1036 C   0  0  0  0  0  0  0  0  0  0  0  0
   96.1130    1.4807    0.1432 N   0  0  0  0  0  0  0  0  0  0  0  0
   98.1074    0.0583    0.0170 C   0  0  0  0  0  0  0  0  0  0  0  0
   97.4507   -1.1794   -0.0721 C   0  0  0  0  0  0  0  0  0  0  0  0
   98.1201   -2.4472   -0.1301 C   0  0  0  0  0  0  0  0  0  0  0  0
   97.1544   -3.3918   -0.2368 C   0  0  0  0  0  0  0  0  0  0  0  0
   95.8982   -2.6988   -0.2370 C   0  0  0  0  0  0  0  0  0  0  0  0
   96.1090   -1.3571   -0.1259 N   0  0  0  0  0  0  0  0  0  0  0  0
   94.6635   -3.3138   -0.3533 C   0  0  0  0  0  0  0  0  0  0  0  0
   93.4307   -2.6840   -0.3443 C   0  0  0  0  0  0  0  0  0  0  0  0
   93.2223   -1.3477   -0.1764 N   0  0  0  0  0  0  0  0  0  0  0  0
   92.0584   -4.4134   -0.6545 H   0  0  0  0  0  0  0  0  0  0  0  0
   90.1490   -2.5248   -0.5114 H   0  0  0  0  0  0  0  0  0  0  0  0
   90.1510    2.6740    0.4228 H   0  0  0  0  0  0  0  0  0  0  0  0
   92.0663    4.5538    0.6043 H   0  0  0  0  0  0  0  0  0  0  0  0
   94.6725    4.5178    0.4661 H   0  0  0  0  0  0  0  0  0  0  0  0
   97.2812    4.5751    0.3465 H   0  0  0  0  0  0  0  0  0  0  0  0
   99.1920    2.6927    0.1366 H   0  0  0  0  0  0  0  0  0  0  0  0
   99.1831   -2.5805   -0.0798 H   0  0  0  0  0  0  0  0  0  0  0  0
   97.2678   -4.4565   -0.3060 H   0  0  0  0  0  0  0  0  0  0  0  0
   94.6618   -4.3893   -0.4647 H   0  0  0  0  0  0  0  0  0  0  0  0
  105.5648    0.0366   -0.0236 Zn  0  0  0  0  0  0  0  0  0  0  0  0
  103.0506   -2.9033   -1.8199 C   0  0  0  0  0  0  0  0  0  0  0  0
  102.0922   -2.0771   -1.3353 C   0  0  0  0  0  0  0  0  0  0  0  0
  102.7724   -1.0134   -0.6534 C   0  0  0  0  0  0  0  0  0  0  0  0
  102.1260    0.0450    0.0046 C   0  0  0  0  0  0  0  0  0  0  0  0
  102.7882    1.0993    0.6532 C   0  0  0  0  0  0  0  0  0  0  0  0
  102.1242    2.1655    1.3469 C   0  0  0  0  0  0  0  0  0  0  0  0
  103.0942    2.9868    1.8164 C   0  0  0  0  0  0  0  0  0  0  0  0
  104.3478    2.4163    1.4144 C   0  0  0  0  0  0  0  0  0  0  0  0
  104.1309    1.2667    0.7155 N   0  0  0  0  0  0  0  0  0  0  0  0
  105.5858    2.9686    1.6947 C   0  0  0  0  0  0  0  0  0  0  0  0
  106.8163    2.4408    1.3427 C   0  0  0  0  0  0  0  0  0  0  0  0
  108.0787    3.0556    1.6379 C   0  0  0  0  0  0  0  0  0  0  0  0
  109.0369    2.2335    1.1459 C   0  0  0  0  0  0  0  0  0  0  0  0
  108.3567    1.1156    0.5570 C   0  0  0  0  0  0  0  0  0  0  0  0
  107.0162    1.2673    0.6797 N   0  0  0  0  0  0  0  0  0  0  0  0
  109.0029    0.0287   -0.0519 C   0  0  0  0  0  0  0  0  0  0  0  0
  108.3422   -1.0534   -0.6535 C   0  0  0  0  0  0  0  0  0  0  0  0
  109.0076   -2.1717   -1.2584 C   0  0  0  0  0  0  0  0  0  0  0  0
  108.0375   -2.9890   -1.7348 C   0  0  0  0  0  0  0  0  0  0  0  0
  106.7829   -2.3710   -1.4141 C   0  0  0  0  0  0  0  0  0  0  0  0
  106.9991   -1.1996   -0.7526 N   0  0  0  0  0  0  0  0  0  0  0  0
  105.5441   -2.8945   -1.7429 C   0  0  0  0  0  0  0  0  0  0  0  0
  104.3133   -2.3381   -1.4397 C   0  0  0  0  0  0  0  0  0  0  0  0
  104.1131   -1.1873   -0.7377 N   0  0  0  0  0  0  0  0  0  0  0  0
  102.9283   -3.8074   -2.3845 H   0  0  0  0  0  0  0  0  0  0  0  0
  101.0274   -2.1582   -1.4339 H   0  0  0  0  0  0  0  0  0  0  0  0
  101.0615    2.2513    1.4628 H   0  0  0  0  0  0  0  0  0  0  0  0
  102.9856    3.8909    2.3839 H   0  0  0  0  0  0  0  0  0  0  0  0
  105.5925    3.9014    2.2415 H   0  0  0  0  0  0  0  0  0  0  0  0
  108.2009    3.9910    2.1490 H   0  0  0  0  0  0  0  0  0  0  0  0
  110.1014    2.3636    1.1597 H   0  0  0  0  0  0  0  0  0  0  0  0
  110.0714   -2.3042   -1.2938 H   0  0  0  0  0  0  0  0  0  0  0  0
  108.1468   -3.9231   -2.2512 H   0  0  0  0  0  0  0  0  0  0  0  0
  105.5373   -3.8272   -2.2899 H   0  0  0  0  0  0  0  0  0  0  0  0
  2  3  2  0  0  0  0
  3  4  1  0  0  0  0
  4  5  4  0  0  0  0
  5  6  4  0  0  0  0
  6  7  1  0  0  0  0
  7  8  2  0  0  0  0
  8  9  1  0  0  0  0
  1 10  1  0  0  0  0
  6 10  4  0  0  0  0
  9 10  4  0  0  0  0
  9 11  4  0  0  0  0
 11 12  4  0  0  0  0
 12 13  1  0  0  0  0
 13 14  2  0  0  0  0
 14 15  1  0  0  0  0
  1 16  1  0  0  0  0
 12 16  4  0  0  0  0
 15 16  4  0  0  0  0
 15 17  4  0  0  0  0
 17 18  4  0  0  0  0
 18 19  1  0  0  0  0
 19 20  2  0  0  0  0
 20 21  1  0  0  0  0
  1 22  1  0  0  0  0
 18 22  4  0  0  0  0
 21 22  4  0  0  0  0
 21 23  4  0  0  0  0
  2 24  1  0  0  0  0
 23 24  4  0  0  0  0
  1 25  1  0  0  0  0
  4 25  4  0  0  0  0
 24 25  4  0  0  0  0
  2 26  1  0  0  0  0
  3 27  1  0  0  0  0
  7 28  1  0  0  0  0
  8 29  1  0  0  0  0
 11 30  1  0  0  0  0
 13 31  1  0  0  0  0
 14 32  1  0  0  0  0
 17 33  1  0  0  0  0
 19 34  1  0  0  0  0
 20 35  1  0  0  0  0
 23 36  1  0  0  0  0
 38 39  2  0  0  0  0
 39 40  1  0  0  0  0
 40 41  4  0  0  0  0
 41 42  4  0  0  0  0
 42 43  1  0  0  0  0
 43 44  2  0  0  0  0
 44 45  1  0  0  0  0
 37 46  1  0  0  0  0
 42 46  4  0  0  0  0
 45 46  4  0  0  0  0
 45 47  4  0  0  0  0
 47 48  4  0  0  0  0
 48 49  1  0  0  0  0
 49 50  2  0  0  0  0
 50 51  1  0  0  0  0
 37 52  1  0  0  0  0
 48 52  4  0  0  0  0
 51 52  4  0  0  0  0
 51 53  4  0  0  0  0
 53 54  4  0  0  0  0
 54 55  1  0  0  0  0
 55 56  2  0  0  0  0
 56 57  1  0  0  0  0
 37 58  1  0  0  0  0
 54 58  4  0  0  0  0
 57 58  4  0  0  0  0
 57 59  4  0  0  0  0
 38 60  1  0  0  0  0
 59 60  4  0  0  0  0
 37 61  1  0  0  0  0
 40 61  4  0  0  0  0
 60 61  4  0  0  0  0
 38 62  1  0  0  0  0
 39 63  1  0  0  0  0
 43 64  1  0  0  0  0
 44 65  1  0  0  0  0
 47 66  1  0  0  0  0
 49 67  1  0  0  0  0
 50 68  1  0  0  0  0
 53 69  1  0  0  0  0
 55 70  1  0  0  0  0
 56 71  1  0  0  0  0
 59 72  1  0  0  0  0
  5 73  1  0  0  0  0
 73 74  3  0  0  0  0
 75 76  3  0  0  0  0
 77 78  3  0  0  0  0
 79 80  3  0  0  0  0
 81 82  3  0  0  0  0
 41 84  1  0  0  0  0
 83 84  3  0  0  0  0
 86 87  2  0  0  0  0
 87 88  1  0  0  0  0
 74 89  1  0  0  0  0
 88 89  4  0  0  0  0
 89 90  4  0  0  0  0
 90 91  1  0  0  0  0
 91 92  2  0  0  0  0
 92 93  1  0  0  0  0
 85 94  1  0  0  0  0
 90 94  4  0  0  0  0
 93 94  4  0  0  0  0
 93 95  4  0  0  0  0
 95 96  4  0  0  0  0
 96 97  1  0  0  0  0
 97 98  2  0  0  0  0
 98 99  1  0  0  0  0
 85100  1  0  0  0  0
 96100  4  0  0  0  0
 99100  4  0  0  0  0
 75101  1  0  0  0  0
 99101  4  0  0  0  0
101102  4  0  0  0  0
102103  1  0  0  0  0
103104  2  0  0  0  0
104105  1  0  0  0  0
 85106  1  0  0  0  0
102106  4  0  0  0  0
105106  4  0  0  0  0
105107  4  0  0  0  0
 86108  1  0  0  0  0
107108  4  0  0  0  0
 85109  1  0  0  0  0
 88109  4  0  0  0  0
108109  4  0  0  0  0
 86110  1  0  0  0  0
 87111  1  0  0  0  0
 91112  1  0  0  0  0
 92113  1  0  0  0  0
 95114  1  0  0  0  0
 97115  1  0  0  0  0
 98116  1  0  0  0  0
103117  1  0  0  0  0
104118  1  0  0  0  0
107119  1  0  0  0  0
121122  2  0  0  0  0
122123  1  0  0  0  0
 76124  1  0  0  0  0
123124  4  0  0  0  0
124125  4  0  0  0  0
125126  1  0  0  0  0
126127  2  0  0  0  0
127128  1  0  0  0  0
120129  1  0  0  0  0
125129  4  0  0  0  0
128129  4  0  0  0  0
128130  4  0  0  0  0
130131  4  0  0  0  0
131132  1  0  0  0  0
132133  2  0  0  0  0
133134  1  0  0  0  0
120135  1  0  0  0  0
131135  4  0  0  0  0
134135  4  0  0  0  0
 77136  1  0  0  0  0
134136  4  0  0  0  0
136137  4  0  0  0  0
137138  1  0  0  0  0
138139  2  0  0  0  0
139140  1  0  0  0  0
120141  1  0  0  0  0
137141  4  0  0  0  0
140141  4  0  0  0  0
140142  4  0  0  0  0
121143  1  0  0  0  0
142143  4  0  0  0  0
120144  1  0  0  0  0
123144  4  0  0  0  0
143144  4  0  0  0  0
121145  1  0  0  0  0
122146  1  0  0  0  0
126147  1  0  0  0  0
127148  1  0  0  0  0
130149  1  0  0  0  0
132150  1  0  0  0  0
133151  1  0  0  0  0
138152  1  0  0  0  0
139153  1  0  0  0  0
142154  1  0  0  0  0
156157  2  0  0  0  0
157158  1  0  0  0  0
 78159  1  0  0  0  0
158159  4  0  0  0  0
159160  4  0  0  0  0
160161  1  0  0  0  0
161162  2  0  0  0  0
162163  1  0  0  0  0
155164  1  0  0  0  0
160164  4  0  0  0  0
163164  4  0  0  0  0
163165  4  0  0  0  0
165166  4  0  0  0  0
166167  1  0  0  0  0
167168  2  0  0  0  0
168169  1  0  0  0  0
155170  1  0  0  0  0
166170  4  0  0  0  0
169170  4  0  0  0  0
 79171  1  0  0  0  0
169171  4  0  0  0  0
171172  4  0  0  0  0
172173  1  0  0  0  0
173174  2  0  0  0  0
174175  1  0  0  0  0
155176  1  0  0  0  0
172176  4  0  0  0  0
175176  4  0  0  0  0
175177  4  0  0  0  0
156178  1  0  0  0  0
177178  4  0  0  0  0
155179  1  0  0  0  0
158179  4  0  0  0  0
178179  4  0  0  0  0
156180  1  0  0  0  0
157181  1  0  0  0  0
161182  1  0  0  0  0
162183  1  0  0  0  0
165184  1  0  0  0  0
167185  1  0  0  0  0
168186  1  0  0  0  0
173187  1  0  0  0  0
174188  1  0  0  0  0
177189  1  0  0  0  0
191192  2  0  0  0  0
192193  1  0  0  0  0
 80194  1  0  0  0  0
193194  4  0  0  0  0
194195  4  0  0  0  0
195196  1  0  0  0  0
196197  2  0  0  0  0
197198  1  0  0  0  0
190199  1  0  0  0  0
195199  4  0  0  0  0
198199  4  0  0  0  0
198200  4  0  0  0  0
200201  4  0  0  0  0
201202  1  0  0  0  0
202203  2  0  0  0  0
203204  1  0  0  0  0
190205  1  0  0  0  0
201205  4  0  0  0  0
204205  4  0  0  0  0
 81206  1  0  0  0  0
204206  4  0  0  0  0
206207  4  0  0  0  0
207208  1  0  0  0  0
208209  2  0  0  0  0
209210  1  0  0  0  0
190211  1  0  0  0  0
207211  4  0  0  0  0
210211  4  0  0  0  0
210212  4  0  0  0  0
191213  1  0  0  0  0
212213  4  0  0  0  0
190214  1  0  0  0  0
193214  4  0  0  0  0
213214  4  0  0  0  0
191215  1  0  0  0  0
192216  1  0  0  0  0
196217  1  0  0  0  0
197218  1  0  0  0  0
200219  1  0  0  0  0
202220  1  0  0  0  0
203221  1  0  0  0  0
208222  1  0  0  0  0
209223  1  0  0  0  0
212224  1  0  0  0  0
226227  2  0  0  0  0
227228  1  0  0  0  0
 82229  1  0  0  0  0
228229  4  0  0  0  0
229230  4  0  0  0  0
230231  1  0  0  0  0
231232  2  0  0  0  0
232233  1  0  0  0  0
225234  1  0  0  0  0
230234  4  0  0  0  0
233234  4  0  0  0  0
233235  4  0  0  0  0
235236  4  0  0  0  0
236237  1  0  0  0  0
237238  2  0  0  0  0
238239  1  0  0  0  0
225240  1  0  0  0  0
236240  4  0  0  0  0
239240  4  0  0  0  0
 83241  1  0  0  0  0
239241  4  0  0  0  0
241242  4  0  0  0  0
242243  1  0  0  0  0
243244  2  0  0  0  0
244245  1  0  0  0  0
225246  1  0  0  0  0
242246  4  0  0  0  0
245246  4  0  0  0  0
245247  4  0  0  0  0
226248  1  0  0  0  0
247248  4  0  0  0  0
225249  1  0  0  0  0
228249  4  0  0  0  0
248249  4  0  0  0  0
226250  1  0  0  0  0
227251  1  0  0  0  0
231252  1  0  0  0  0
232253  1  0  0  0  0
235254  1  0  0  0  0
237255  1  0  0  0  0
238256  1  0  0  0  0
243257  1  0  0  0  0
244258  1  0  0  0  0
247259  1  0  0  0  0
M  END
