190

C 39.907435 3.511844 0.789606
C 40.797413 2.571584 0.591410
C 40.135912 1.311510 0.290603
C 40.494350 0.005847 0.001922
C 39.669172 -1.125225 -0.083295
C 40.124737 -2.333949 0.498013
C 39.152043 -3.266495 0.297857
C 38.120949 -2.598794 -0.405130
N 38.457674 -1.317935 -0.622044
C 36.962988 -3.324910 -0.736847
C 35.644887 -2.882214 -0.623312
C 34.332541 -3.484348 -0.720291
C 33.410913 -2.537700 -0.514207
C 34.107799 -1.291870 -0.277475
N 35.428872 -1.571622 -0.357161
C 33.708557 0.010127 -0.009472
C 34.541169 1.146803 0.066436
C 34.107026 2.348793 -0.543704
C 35.102539 3.265181 -0.351748
C 36.116690 2.591938 0.372183
N 35.751493 1.324116 0.611007
C 37.286331 3.298895 0.693682
C 38.601585 2.895370 0.623667
N 38.791207 1.584266 0.327265
H 40.074700 4.540387 1.028195
H 41.867672 2.694922 0.640429
H 41.085258 -2.519651 1.016589
H 39.188924 -4.323105 0.623185
H 37.854389 -0.550524 -1.169563
H 37.051379 -4.360337 -1.115194
H 34.133866 -4.545049 -0.929036
H 32.341503 -2.729634 -0.533440
H 32.633614 0.099397 0.128272
H 33.153372 2.540350 -1.072502
H 35.088118 4.315410 -0.698190
H 36.344818 0.566673 1.183003
H 37.217824 4.356299 1.050398
C 77.443522 -3.491779 0.825976
C 76.553544 -2.553629 0.618026
C 77.215046 -1.296746 0.304148
C 76.856607 0.005847 0.001922
C 77.681786 1.135973 -0.095037
C 77.226220 2.350670 0.473685
C 78.198915 3.281087 0.263856
C 79.230008 2.606121 -0.432159
N 78.893283 1.323077 -0.635759
C 80.387969 3.328752 -0.771400
C 81.706070 2.887259 -0.653273
C 83.018416 3.488354 -0.756501
C 83.940044 2.543897 -0.540596
C 83.243158 1.300593 -0.290938
N 81.922085 1.579502 -0.373525
C 83.642400 0.001449 -0.009427
C 82.809788 -1.134377 0.078283
C 83.243931 -2.342639 -0.519341
C 82.248418 -3.256984 -0.317878
C 81.234267 -2.576259 0.399021
N 81.599464 -1.306025 0.624665
C 80.064626 -3.279838 0.727846
C 78.749373 -2.877062 0.653643
N 78.559750 -1.569107 0.343640
H 77.276257 -4.517789 1.075235
H 75.483285 -2.676450 0.668322
H 76.265699 2.541748 0.990305
H 78.162033 4.341018 0.578191
H 79.496568 0.550022 -1.175279
H 80.299578 4.360194 -1.160480
H 83.217092 4.546829 -0.976251
H 85.009454 2.735621 -0.561821
H 84.717343 -0.086385 0.129237
H 84.197586 -2.539678 -1.046121
H 82.262840 -4.310754 -0.653394
H 81.006140 -0.542681 1.188764
H 80.133134 -4.333481 1.095525
C 42.721794 0.005847 0.001922
C 43.937999 0.005847 0.001922
C 52.952182 0.005847 0.001922
C 54.168387 0.005847 0.001922
C 63.182570 0.005847 0.001922
C 64.398775 0.005847 0.001922
C 73.412958 0.005847 0.001922
C 74.629163 0.005847 0.001922
C 45.653147 -3.593713 0.000432
C 44.778597 -2.598808 -0.009870
C 45.450061 -1.320025 0.003319
C 45.053030 -0.004440 -0.001459
C 45.864223 1.139884 -0.155585
C 45.385197 2.192400 -0.967651
C 46.372282 3.135153 -0.959120
C 47.419553 2.633358 -0.146317
N 47.080700 1.426991 0.326429
C 48.579931 3.411341 0.008033
C 49.900920 2.953468 -0.021360
C 51.213489 3.581601 -0.082488
C 52.127602 2.626537 -0.085071
C 51.454055 1.339663 -0.025882
N 50.141997 1.628262 0.008908
C 51.856339 -0.004440 -0.001459
C 51.024185 -1.118229 0.180822
C 51.464143 -2.149886 1.044133
C 50.465961 -3.073226 1.048754
C 49.443045 -2.593288 0.195324
N 49.810222 -1.412041 -0.315184
C 48.286136 -3.368696 0.038256
C 46.965361 -2.949218 0.021571
N 46.788970 -1.611014 0.022471
H 45.484628 -4.655880 -0.004971
H 43.690769 -2.784844 -0.026897
H 44.421119 2.267772 -1.501967
H 46.334135 4.106268 -1.491562
H 47.688379 0.789891 1.015059
H 48.524831 4.497603 0.152149
H 51.431916 4.649593 -0.120818
H 53.203917 2.772580 -0.124698
H 52.418153 -2.214298 1.601681
H 50.491379 -4.018544 1.624074
H 49.223146 -0.792585 -1.038834
H 48.346854 -4.480436 -0.075873
C 55.883535 -3.593713 0.000432
C 55.008985 -2.598808 -0.009870
C 55.680449 -1.320025 0.003319
C 55.283418 -0.004440 -0.001459
C 56.094610 1.139884 -0.155585
C 55.615585 2.192400 -0.967651
C 56.602670 3.135153 -0.959120
C 57.649941 2.633358 -0.146317
N 57.311088 1.426991 0.326429
C 58.810319 3.411341 0.008033
C 60.131308 2.953468 -0.021360
C 61.443877 3.581601 -0.082488
C 62.357990 2.626537 -0.085071
C 61.684443 1.339663 -0.025882
N 60.372385 1.628262 0.008908
C 62.086727 -0.004440 -0.001459
C 61.254573 -1.118229 0.180822
C 61.694531 -2.149886 1.044133
C 60.696349 -3.073226 1.048754
C 59.673433 -2.593288 0.195324
N 60.040610 -1.412041 -0.315184
C 58.516524 -3.368696 0.038256
C 57.195749 -2.949218 0.021571
N 57.019358 -1.611014 0.022471
H 55.715016 -4.655880 -0.004971
H 53.921157 -2.784844 -0.026897
H 54.651507 2.267772 -1.501967
H 56.564523 4.106268 -1.491562
H 57.918767 0.789891 1.015059
H 58.755219 4.497603 0.152149
H 61.662304 4.649593 -0.120818
H 63.434305 2.772580 -0.124698
H 62.648540 -2.214298 1.601681
H 60.721767 -4.018544 1.624074
H 59.453534 -0.792585 -1.038834
H 58.577242 -4.480436 -0.075873
C 66.113923 -3.593713 0.000432
C 65.239373 -2.598808 -0.009870
C 65.910837 -1.320025 0.003319
C 65.513806 -0.004440 -0.001459
C 66.324998 1.139884 -0.155585
C 65.845973 2.192400 -0.967651
C 66.833058 3.135153 -0.959120
C 67.880329 2.633358 -0.146317
N 67.541476 1.426991 0.326429
C 69.040706 3.411341 0.008033
C 70.361696 2.953468 -0.021360
C 71.674265 3.581601 -0.082488
C 72.588378 2.626537 -0.085071
C 71.914831 1.339663 -0.025882
N 70.602773 1.628262 0.008908
C 72.317115 -0.004440 -0.001459
C 71.484960 -1.118229 0.180822
C 71.924919 -2.149886 1.044133
C 70.926737 -3.073226 1.048754
C 69.903821 -2.593288 0.195324
N 70.270998 -1.412041 -0.315184
C 68.746912 -3.368696 0.038256
C 67.426136 -2.949218 0.021571
N 67.249746 -1.611014 0.022471
H 65.945404 -4.655880 -0.004971
H 64.151545 -2.784844 -0.026897
H 64.881895 2.267772 -1.501967
H 66.794911 4.106268 -1.491562
H 68.149155 0.789891 1.015059
H 68.985607 4.497603 0.152149
H 71.892692 4.649593 -0.120818
H 73.664693 2.772580 -0.124698
H 72.878928 -2.214298 1.601681
H 70.952155 -4.018544 1.624074
H 69.683922 -0.792585 -1.038834
H 68.807630 -4.480436 -0.075873
