154

Co 21.744327 0.001298 -0.005223
C 24.238642 -3.408934 0.079564
C 25.191684 -2.449903 0.059905
C 24.502638 -1.196265 0.024059
C 25.168106 0.030915 -0.003401
C 24.481314 1.246610 -0.011320
C 25.148692 2.512464 -0.013325
C 24.179465 3.455023 0.010070
C 22.931103 2.754883 0.020612
N 23.127039 1.398697 0.005012
C 21.711485 3.395981 0.040832
C 20.504705 2.731684 0.023629
C 19.239163 3.405516 0.019482
C 18.292664 2.443403 -0.028617
C 18.987172 1.188960 -0.047716
N 20.340634 1.374938 -0.013070
C 18.341992 -0.028117 -0.091309
C 19.009093 -1.234078 -0.082260
C 18.337277 -2.500822 -0.102364
C 19.300135 -3.446706 -0.056851
C 20.552889 -2.750695 -0.014628
N 20.365096 -1.396649 -0.033011
C 21.770312 -3.393553 0.034998
C 22.978420 -2.730933 0.050807
N 23.151079 -1.371803 0.021385
H 24.355167 -4.474770 0.107458
H 26.258955 -2.555339 0.069156
H 26.213855 2.636360 -0.027462
H 24.277603 4.522995 0.017761
H 21.702511 4.475174 0.061295
H 19.119181 4.471188 0.046823
H 17.225019 2.545766 -0.048087
H 17.263254 -0.037402 -0.124018
H 17.272110 -2.621768 -0.142464
H 19.199030 -4.514713 -0.052847
H 21.779906 -4.472784 0.053359
Co 62.032159 0.036807 -0.003983
C 59.545889 3.399871 0.603611
C 58.590665 2.460279 0.421599
C 59.276882 1.223653 0.202748
C 58.608401 0.015255 -0.002367
C 59.291813 -1.187457 -0.191118
C 58.621023 -2.437257 -0.381285
C 59.587987 -3.371137 -0.526906
C 60.838276 -2.681154 -0.428276
N 60.645829 -1.340504 -0.219325
C 62.056089 -3.314664 -0.547835
C 63.264192 -2.656714 -0.473758
C 64.527442 -3.318810 -0.620547
C 65.476415 -2.365893 -0.497196
C 64.785681 -1.129652 -0.271223
N 63.431949 -1.316712 -0.261138
C 65.434693 0.070618 -0.077538
C 64.771311 1.254848 0.161189
C 65.447081 2.499453 0.386332
C 64.486367 3.426559 0.589615
C 63.231052 2.742246 0.482305
N 63.415271 1.412701 0.222683
C 62.014645 3.375522 0.613158
C 60.804654 2.727853 0.489715
N 60.628913 1.391443 0.242474
H 59.431759 4.448965 0.795647
H 57.523644 2.568183 0.433004
H 57.555391 -2.557509 -0.396590
H 59.487045 -4.426658 -0.688679
H 62.062304 -4.380880 -0.716105
H 64.644332 -4.370761 -0.795203
H 66.543498 -2.463925 -0.547115
H 66.513544 0.082176 -0.105516
H 66.513059 2.619462 0.385321
H 64.590408 4.475057 0.791009
H 62.007611 4.436008 0.814400
C 26.566437 0.042852 -0.010212
C 27.784055 0.053199 -0.014974
C 29.126844 0.060951 -0.017999
C 30.344608 0.066877 -0.018636
C 39.999297 0.050352 -0.017274
C 41.217232 0.042492 -0.017026
C 42.559748 0.035206 -0.016942
C 43.777616 0.026234 -0.017080
C 53.431698 -0.007379 -0.016467
C 54.649425 -0.004095 -0.014762
C 55.992320 -0.000613 -0.010957
C 57.209903 0.007862 -0.008275
Co 35.171821 0.059889 -0.018570
C 32.698020 -3.344721 0.377425
C 31.737851 -2.398845 0.268149
C 32.417870 -1.148317 0.121722
C 31.742479 0.065998 -0.018827
C 32.422005 1.277892 -0.158920
C 31.746415 2.530851 -0.304949
C 32.709972 3.473348 -0.413874
C 33.962189 2.785319 -0.333097
N 33.774870 1.436766 -0.176860
C 35.177859 3.429037 -0.405205
C 36.391179 2.781480 -0.328357
C 37.645776 3.465766 -0.403472
C 38.605993 2.519842 -0.294417
C 37.926101 1.268619 -0.154096
N 36.573839 1.431939 -0.174682
C 38.601601 0.053873 -0.017681
C 37.921659 -1.158579 0.118004
C 38.597119 -2.412370 0.257670
C 37.633515 -3.354888 0.366107
C 36.381438 -2.666099 0.291067
N 36.568870 -1.317152 0.137878
C 35.165887 -3.309331 0.367993
C 33.952628 -2.661171 0.296165
N 33.770120 -1.311969 0.139721
H 32.589561 -4.404613 0.501147
H 30.671360 -2.511265 0.282649
H 30.680266 2.646945 -0.319255
H 32.605273 4.533647 -0.537159
H 35.179792 4.501496 -0.528564
H 37.754144 4.526129 -0.523446
H 39.672497 2.632700 -0.305017
H 39.663169 -2.529124 0.268430
H 37.738049 -4.415649 0.485638
H 35.163944 -4.381789 0.491260
Co 48.604762 0.007774 -0.022216
C 46.125258 -3.390896 0.387230
C 45.166694 -2.442143 0.288594
C 45.848690 -1.194017 0.130762
C 45.175298 0.020408 -0.018735
C 45.857327 1.229667 -0.170963
C 45.184225 2.482353 -0.329395
C 46.149432 3.423683 -0.433721
C 47.400208 2.735225 -0.337311
N 47.210372 1.387099 -0.180072
C 48.616739 3.379254 -0.388012
C 49.828644 2.731050 -0.296315
C 51.084417 3.415598 -0.346218
C 52.042817 2.467505 -0.240796
C 51.360598 1.214630 -0.128201
N 50.008678 1.379477 -0.158528
C 52.033706 -0.004050 -0.019238
C 51.352157 -1.218239 0.086510
C 52.025524 -2.476114 0.196966
C 51.060360 -3.417937 0.297101
C 49.809398 -2.724622 0.246792
N 49.999041 -1.373945 0.113193
C 48.592839 -3.364400 0.336445
C 47.380908 -2.711410 0.289282
N 47.200582 -1.361527 0.136006
H 46.015117 -4.450339 0.513332
H 44.100067 -2.551289 0.315710
H 44.118468 2.599338 -0.353694
H 46.046821 4.483542 -0.562311
H 48.620627 4.452375 -0.505309
H 51.194796 4.477516 -0.449368
H 53.109441 2.579685 -0.239049
H 53.091388 -2.595460 0.197273
H 51.163203 -4.480849 0.397229
H 48.589017 -4.437858 0.450684
