164

C 16.455445 -2.303371 -1.373969
C 16.034445 -1.231078 -2.005720
C 16.718262 -0.089167 -1.523062
C 16.683025 1.312868 -1.733531
C 17.626978 2.219694 -1.278542
C 17.207287 3.323457 -0.452551
C 18.327860 4.008245 -0.048097
C 19.418323 3.248871 -0.681314
N 18.923199 2.281002 -1.332310
C 20.691856 3.711813 -0.385706
C 21.795728 2.891883 -0.034617
C 23.213212 3.110891 0.110085
C 23.794414 1.977458 0.470572
C 22.746256 0.995994 0.567801
N 21.536806 1.582295 0.238617
C 22.641710 -0.353834 0.835383
C 21.493605 -1.143685 0.998001
C 21.570973 -2.244137 1.909402
C 20.282189 -2.839459 1.809767
C 19.579039 -2.071368 0.880555
N 20.324137 -1.054407 0.405502
C 18.255084 -2.457254 0.507688
C 17.466805 -1.866095 -0.417417
N 17.562975 -0.537464 -0.573374
H 16.138783 -3.344439 -1.474363
H 15.272580 -1.248947 -2.772072
H 16.167079 3.595445 -0.187271
H 18.399920 4.866675 0.583559
H 19.555188 1.531881 -1.983818
H 20.949326 4.783565 -0.439257
H 23.741968 4.075121 -0.028226
H 24.810352 1.807085 0.659029
H 23.675117 -0.812603 0.963991
H 22.364547 -2.599552 2.518884
H 20.008797 -3.730697 2.401382
H 20.008006 -0.303366 -0.335049
H 17.777289 -3.334286 1.003092
C -18.111443 3.306486 -0.897284
C -17.311446 2.672692 -1.816157
C -17.205359 1.282801 -1.442935
C -16.742495 0.046498 -2.000606
C -17.400457 -1.197203 -1.679955
C -16.799397 -2.218212 -0.843124
C -17.791189 -3.128429 -0.661736
C -18.946241 -2.744964 -1.312108
N -18.666474 -1.575667 -1.913107
C -20.187130 -3.431040 -1.275249
C -21.428524 -2.818130 -0.959482
C -22.551858 -2.384484 -1.660247
C -23.365076 -1.705533 -0.959390
C -22.800775 -1.633612 0.326836
N -21.574720 -2.339287 0.410571
C -23.118021 -0.855795 1.473757
C -22.136792 0.161307 1.929808
C -21.686873 0.401998 3.194937
C -20.574384 1.269847 3.120389
C -20.387972 1.537302 1.810887
N -21.414560 0.825418 1.089246
C -19.465835 1.903764 0.941707
C -18.519124 2.283686 0.055938
N -17.901002 1.198018 -0.399349
H -18.435826 4.317598 -0.863315
H -16.834333 3.074429 -2.679258
H -15.746760 -2.184538 -0.502568
H -17.621422 -4.033806 -0.036074
H -19.386732 -1.014532 -2.603626
H -20.305339 -4.463459 -1.492458
H -22.778452 -2.593239 -2.758820
H -24.346037 -1.234799 -1.232554
H -23.989092 -0.945284 2.032603
H -22.083030 -0.013763 4.118070
H -20.014299 1.621316 3.967083
H -21.512035 0.988438 -0.042989
H -18.936106 2.939855 1.816214
C 15.429054 1.650600 -2.412859
C 14.337877 1.813788 -2.862895
C 12.982325 1.749310 -3.195643
C 11.825832 1.515928 -3.284135
C 10.513498 1.100806 -3.097989
C 9.522065 0.618938 -2.679860
C 3.152610 0.541165 3.952956
C 2.122173 0.432596 4.494745
C 0.793383 0.262742 4.811986
C -0.378785 0.085887 4.761798
C -1.652679 -0.151171 4.349864
C -2.620006 -0.336612 3.718001
C -9.833587 0.075933 -3.612317
C -10.886271 0.184873 -4.056076
C -12.250946 0.242443 -4.187469
C -13.389397 0.244589 -3.964348
C -14.649147 0.200251 -3.406748
C -15.631028 0.144782 -2.799729
C 5.436580 -0.259842 -3.910531
C 6.726992 -0.161460 -3.943172
C 7.235761 -0.131081 -2.558165
C 8.402374 -0.022725 -1.937731
C 8.760946 -0.390108 -0.588400
C 10.003478 -0.998029 -0.356593
C 10.081863 -1.168945 0.994439
C 8.868478 -0.652395 1.538669
N 8.092833 -0.189664 0.570997
C 8.721844 -0.678711 2.942938
C 7.653697 -0.138358 3.629413
C 7.388860 0.415627 4.951528
C 6.133957 0.784081 4.993675
C 5.534233 0.487593 3.674205
N 6.520838 -0.054141 2.970797
C 4.342531 0.585574 3.065663
C 4.034764 0.662679 1.669538
C 3.147288 1.627692 1.194095
C 2.959663 1.399923 -0.133054
C 3.781190 0.255792 -0.448555
N 4.415911 -0.177109 0.681238
C 3.837718 -0.232751 -1.760068
C 5.024259 -0.280082 -2.542227
N 6.126825 -0.206825 -1.788154
H 4.744955 -0.279284 -4.714251
H 7.400925 -0.092289 -4.785148
H 10.781900 -1.268210 -1.071109
H 10.940467 -1.616609 1.524003
H 7.076883 0.275286 0.678510
H 9.432126 -1.113767 3.617781
H 8.098572 0.516771 5.745669
H 5.580417 1.247978 5.799107
H 2.637577 2.460784 1.737818
H 2.325206 1.965628 -0.817121
H 5.089864 -1.052935 0.757983
H 2.963022 -0.608204 -2.293686
C -2.425333 -0.933964 -0.554420
C -2.275102 -1.250573 0.695104
C -3.300874 -0.538969 1.383730
C -3.629979 -0.515117 2.786506
C -5.029814 -0.518470 3.201804
C -5.601494 0.482109 3.941788
C -6.986044 0.494129 3.555936
C -7.116762 -0.485440 2.639072
N -5.885416 -1.144823 2.437193
C -7.894789 -0.601681 1.564148
C -8.780673 -0.953921 0.567716
C -9.483728 -2.195484 0.160146
C -9.652965 -2.074963 -1.210890
C -9.103543 -0.825753 -1.606011
N -8.654186 -0.275948 -0.533958
C -8.763518 -0.087826 -2.856031
C -7.444820 0.462626 -2.884450
C -7.242764 1.849986 -2.923962
C -5.930410 2.040421 -2.600801
C -5.308505 0.762105 -2.367775
N -6.297245 -0.154980 -2.575059
C -4.022095 0.612061 -1.901575
C -3.514407 -0.044409 -0.779644
N -3.995514 0.144519 0.462311
H -1.741688 -1.363310 -1.355277
H -1.538679 -1.919613 1.190584
H -5.129439 1.146903 4.648803
H -7.716955 1.183928 3.941045
H -5.829993 -2.139285 1.857713
H -7.990680 0.677581 1.188621
H -9.706554 -2.930150 0.823428
H -10.096728 -2.780993 -1.873439
H -7.988590 2.640844 -3.140586
H -5.468343 3.013907 -2.534886
H -6.106096 -1.284900 -2.573755
H -3.179994 1.107739 -2.451215
