78

C 10.505928 3.422230 0.324348
C 11.461105 2.475016 0.249367
C 10.759858 1.212200 0.100797
C 11.421274 -0.027445 -0.007687
C 10.771315 -1.266995 -0.125839
C 11.376769 -2.549043 -0.215050
C 10.374349 -3.470647 -0.312412
C 9.135297 -2.770845 -0.288241
N 9.427686 -1.445750 -0.171906
C 7.868077 -3.327778 -0.377493
C 6.652817 -2.657247 -0.372231
C 5.374716 -3.344264 -0.490425
C 4.429045 -2.387397 -0.454234
C 5.136570 -1.124259 -0.311189
N 6.470550 -1.324612 -0.266503
C 4.493169 0.104296 -0.230492
C 5.117774 1.333664 -0.087335
C 4.510805 2.618776 0.007225
C 5.508533 3.538328 0.141870
C 6.750775 2.839596 0.131469
N 6.462525 1.518810 -0.008275
C 8.017535 3.393938 0.239393
C 9.233955 2.728093 0.216260
N 9.429121 1.393830 0.085644
H 10.614433 4.483697 0.438746
H 12.527827 2.581688 0.289676
H 12.434485 -2.726739 -0.203344
H 10.473128 -4.535526 -0.394747
H 8.751728 -0.692128 -0.127560
H 7.825572 -4.404417 -0.467534
H 5.260129 -4.407001 -0.587492
H 3.362048 -2.486166 -0.514276
H 3.413866 0.102004 -0.280826
H 3.453944 2.799762 -0.024532
H 5.408237 4.602072 0.238683
H 7.136510 0.764026 -0.049755
H 8.060900 4.468899 0.348289
C 12.817959 -0.030136 0.000465
C 14.036448 -0.023471 -0.006811
C 15.377606 -0.014950 -0.008247
C 16.596073 -0.004532 -0.013523
C 24.015412 3.373032 0.404729
C 24.968212 2.422636 0.393919
C 24.270129 1.150887 0.284925
C 24.922473 -0.074694 0.237657
C 24.306637 -1.311765 0.126429
C 24.922553 -2.594649 0.065755
C 23.931318 -3.524192 -0.046280
C 22.684275 -2.834033 -0.055376
N 22.963276 -1.508138 0.050732
C 21.421629 -3.399966 -0.150764
C 20.200335 -2.742687 -0.147863
C 18.933696 -3.448760 -0.240282
C 17.971477 -2.506836 -0.193563
C 18.663151 -1.235462 -0.077137
N 19.995157 -1.406882 -0.053747
C 17.992724 0.001696 -0.001670
C 18.633776 1.248307 0.088178
C 18.019367 2.527889 0.145798
C 19.015271 3.458427 0.222954
C 20.259154 2.766859 0.217121
N 19.976066 1.437368 0.132155
C 21.522272 3.334966 0.293363
C 22.742469 2.673595 0.305118
N 22.934721 1.340043 0.234681
H 24.122143 4.438820 0.472971
H 26.034438 2.531008 0.450915
H 26.001661 -0.063330 0.288909
H 25.980590 -2.767445 0.103354
H 24.039081 -4.589335 -0.115774
H 22.284479 -0.756815 0.071816
H 21.386276 -4.477728 -0.231279
H 18.833060 -4.513716 -0.325794
H 16.905655 -2.622407 -0.233481
H 16.960473 2.697889 0.128041
H 18.909036 4.524246 0.280011
H 20.657066 0.687393 0.107070
H 21.556779 4.413800 0.356660
