232

Co 36.232899 0.006203 -0.000783
C 38.722956 -3.405096 0.129448
C 39.676726 -2.448031 0.075750
C 38.988645 -1.194239 0.026765
C 39.655049 0.032207 -0.012575
C 38.970022 1.248893 -0.004991
C 39.638846 2.513876 0.011659
C 38.670776 3.456930 0.056662
C 37.421615 2.758152 0.056391
N 37.616087 1.402178 0.019177
C 36.202284 3.400047 0.071402
C 34.995704 2.737050 0.018042
C 33.731371 3.412076 -0.020140
C 32.786242 2.451393 -0.109326
C 33.479867 1.196310 -0.113013
N 34.831769 1.380797 -0.035355
C 32.834689 -0.020525 -0.166945
C 33.499082 -1.227079 -0.116378
C 32.825504 -2.493027 -0.117769
C 33.785003 -3.438486 -0.019522
C 35.038032 -2.743407 0.029609
N 34.853272 -1.390146 -0.029767
C 36.253960 -3.386883 0.106368
C 37.463203 -2.726121 0.102264
N 37.637158 -1.368039 0.043153
H 38.838890 -4.470352 0.177550
H 40.743906 -2.554836 0.072536
H 40.704191 2.637175 -0.003922
H 38.770527 4.524573 0.083082
H 36.193677 4.478877 0.106533
H 33.611232 4.477665 0.012404
H 31.719812 2.555244 -0.163310
H 31.757315 -0.028978 -0.230931
H 31.761316 -2.613806 -0.180401
H 33.681510 -4.505802 0.013289
H 36.261619 -4.465329 0.152229
Co 103.381417 0.036348 -0.000905
C 100.894078 3.393728 0.630136
C 99.939604 2.457176 0.429515
C 100.626585 1.222579 0.202018
C 99.958898 0.014831 -0.010215
C 100.642508 -1.190039 -0.184085
C 99.972296 -2.442340 -0.358397
C 100.939661 -3.379604 -0.477743
C 102.189619 -2.688550 -0.383846
N 101.996470 -1.344338 -0.200161
C 103.408083 -3.322860 -0.493280
C 104.615052 -2.660179 -0.445291
C 105.878179 -3.319731 -0.603783
C 106.824952 -2.360108 -0.521110
C 106.133380 -1.122903 -0.303330
N 104.781002 -1.315557 -0.261737
C 106.781026 0.082297 -0.136462
C 106.118107 1.264055 0.115747
C 106.793535 2.509839 0.335347
C 105.833875 3.430406 0.571121
C 104.579179 2.742018 0.484101
N 104.763039 1.415667 0.208446
C 103.363016 3.370699 0.638614
C 102.153152 2.723032 0.513622
N 101.978228 1.389514 0.250944
H 100.779051 4.440411 0.834311
H 98.872574 2.565543 0.435653
H 98.906680 -2.562251 -0.379945
H 100.838974 -4.437879 -0.620654
H 103.415564 -4.392208 -0.640443
H 105.996540 -4.374541 -0.759856
H 107.891240 -2.454590 -0.592176
H 107.858932 0.098382 -0.188698
H 107.858784 2.634835 0.311054
H 105.938265 4.477407 0.780481
H 103.356000 4.428789 0.852014
C 41.053052 0.042167 -0.031848
C 42.270591 0.050004 -0.044168
C 43.613166 0.056388 -0.050820
C 44.830877 0.059452 -0.051661
C 54.483406 0.056258 -0.025247
C 55.701387 0.053517 -0.026444
C 57.043839 0.050945 -0.026501
C 58.261828 0.047647 -0.025961
C 67.917324 0.051179 -0.019387
C 69.135378 0.045585 -0.018597
C 70.477952 0.043122 -0.019600
C 71.696007 0.037221 -0.019559
C 81.351656 0.038090 -0.023534
C 82.569642 0.033462 -0.024970
C 83.912113 0.030731 -0.026635
C 85.130084 0.025995 -0.027648
C 94.782719 0.012950 -0.041398
C 96.000390 0.009594 -0.044099
C 97.343116 0.009553 -0.038321
C 98.560658 0.009577 -0.027109
Co 49.657051 0.060228 -0.024289
C 47.186540 -3.351576 0.334208
C 46.225727 -2.407261 0.217341
C 46.904825 -1.154458 0.086817
C 46.228515 0.060197 -0.045500
C 46.906262 1.275210 -0.165704
C 46.228749 2.528842 -0.296345
C 47.190884 3.474419 -0.390049
C 48.444060 2.787396 -0.316377
N 48.258764 1.436668 -0.177245
C 49.658960 3.432769 -0.386055
C 50.872801 2.784808 -0.321485
C 52.126660 3.469711 -0.401957
C 53.087820 2.523646 -0.302978
C 52.409148 1.271866 -0.161825
N 51.056748 1.434615 -0.175011
C 53.085827 0.057915 -0.023506
C 52.407445 -1.154488 0.120172
C 53.084418 -2.406003 0.271497
C 52.121952 -3.349386 0.382477
C 50.869065 -2.663495 0.295818
N 51.054844 -1.315019 0.136508
C 49.654398 -3.309828 0.360650
C 48.440514 -2.664876 0.272409
N 48.257013 -1.315443 0.119066
H 47.078798 -4.412313 0.451133
H 45.159371 -2.522029 0.217800
H 45.162439 2.643345 -0.311830
H 47.084521 4.536116 -0.499381
H 49.659912 4.506274 -0.499862
H 52.233946 4.530536 -0.518527
H 54.154203 2.636928 -0.319976
H 54.150629 -2.520852 0.287919
H 52.227774 -4.409105 0.509811
H 49.653851 -4.382136 0.485140
Co 63.089279 0.049450 -0.022287
C 60.622855 -3.360288 0.376408
C 59.660463 -2.417005 0.263766
C 60.337570 -1.164950 0.117503
C 59.659393 0.047642 -0.025381
C 60.336695 1.260919 -0.167136
C 59.658545 2.512264 -0.314655
C 60.620128 3.456609 -0.425162
C 61.873693 2.771237 -0.343728
N 61.689136 1.422495 -0.185320
C 63.087990 3.417122 -0.419111
C 64.302791 2.772242 -0.342620
C 65.555715 3.458831 -0.423433
C 66.518168 2.515487 -0.311845
C 65.841223 1.263470 -0.164579
N 64.488580 1.423783 -0.183556
C 66.519634 0.051068 -0.020698
C 65.842146 -1.161929 0.123459
C 66.520105 -2.413076 0.273583
C 65.558430 -3.357243 0.384881
C 64.304946 -2.671954 0.301879
N 64.489665 -1.323466 0.141638
C 63.090673 -3.318048 0.376317
C 61.875839 -2.673539 0.297659
N 61.690158 -1.325080 0.138344
H 60.516835 -4.420318 0.501036
H 58.594198 -2.532190 0.275561
H 58.592206 2.626331 -0.328614
H 60.513106 4.516523 -0.549897
H 63.087548 4.489230 -0.545468
H 65.661560 4.518832 -0.548467
H 67.584422 2.630579 -0.325277
H 67.586414 -2.527204 0.288351
H 65.665261 -4.416981 0.511207
H 63.091155 -4.390082 0.503302
Co 76.524100 0.037857 -0.020447
C 74.057046 -3.370977 0.381732
C 73.094764 -2.427440 0.270194
C 73.771939 -1.175558 0.122804
C 73.093700 0.037117 -0.019677
C 73.771386 1.250145 -0.162516
C 73.093683 2.501795 -0.309578
C 74.055552 3.445730 -0.421048
C 75.308897 2.759850 -0.340768
N 75.123920 1.411238 -0.181934
C 76.523284 3.405466 -0.417398
C 77.738018 2.760363 -0.342161
C 78.991116 3.446536 -0.424006
C 79.953353 2.502827 -0.313596
C 79.276055 1.251113 -0.165425
N 77.923487 1.411828 -0.183256
C 79.954074 0.038454 -0.022424
C 79.276547 -1.174379 0.122166
C 79.954423 -2.425742 0.270857
C 78.992636 -3.369648 0.383313
C 77.739221 -2.683997 0.301913
N 77.924060 -1.335519 0.141683
C 76.524809 -3.329593 0.378064
C 75.310100 -2.684593 0.301180
N 75.124537 -1.336103 0.141999
H 73.950962 -4.430960 0.506669
H 72.028498 -2.542378 0.283381
H 72.027386 2.616327 -0.322660
H 73.948973 4.505684 -0.545814
H 76.522977 4.477587 -0.543644
H 79.097321 4.506502 -0.549016
H 81.019635 2.617528 -0.328025
H 81.020737 -2.540112 0.284379
H 79.099400 -4.429427 0.509381
H 76.525105 -4.401627 0.505045
Co 89.956584 0.020013 -0.029323
C 87.485395 -3.388143 0.351134
C 86.524661 -2.441491 0.253763
C 87.203846 -1.190336 0.109285
C 86.527686 0.024069 -0.027683
C 87.206628 1.237136 -0.162932
C 86.530226 2.490372 -0.302163
C 87.493058 3.435366 -0.394745
C 88.745649 2.748463 -0.311639
N 88.559258 1.397889 -0.171920
C 89.960612 3.395464 -0.362873
C 91.174233 2.748246 -0.288015
C 92.428606 3.434775 -0.343728
C 93.389077 2.487196 -0.253322
C 92.709376 1.232732 -0.143197
N 91.357126 1.395899 -0.162137
C 93.384918 0.014868 -0.040611
C 92.706505 -1.200738 0.068306
C 93.383270 -2.456677 0.179308
C 92.420674 -3.400827 0.281902
C 91.167972 -2.710812 0.231642
N 91.353935 -1.359674 0.097659
C 89.952970 -3.354239 0.315901
C 88.739502 -2.704430 0.264606
N 88.556152 -1.354069 0.118994
H 87.377672 -4.448746 0.469238
H 85.458253 -2.553958 0.274443
H 85.464097 2.605256 -0.322594
H 87.387668 4.496735 -0.507999
H 89.961731 4.469799 -0.468533
H 92.536825 4.497533 -0.440208
H 94.455578 2.600771 -0.259669
H 94.449432 -2.573403 0.178317
H 92.526483 -4.463384 0.383068
H 89.951683 -4.428016 0.427069
