
  xtb     11202116003D
 xtb: 6.4.1 (bd6e46d)
232279  0     0  0            999 V2000
   36.2367    0.0067   -0.0098 Ni  0  0  0  0  0  0  0  0  0  0  0  0
   38.7372   -3.4049    0.0341 C   0  0  0  0  0  0  0  0  0  0  0  0
   39.6883   -2.4440    0.0225 C   0  0  0  0  0  0  0  0  0  0  0  0
   38.9980   -1.1894    0.0084 C   0  0  0  0  0  0  0  0  0  0  0  0
   39.6632    0.0402    0.0004 C   0  0  0  0  0  0  0  0  0  0  0  0
   38.9744    1.2565    0.0017 C   0  0  0  0  0  0  0  0  0  0  0  0
   39.6401    2.5243    0.0115 C   0  0  0  0  0  0  0  0  0  0  0  0
   38.6704    3.4666    0.0214 C   0  0  0  0  0  0  0  0  0  0  0  0
   37.4204    2.7674    0.0136 C   0  0  0  0  0  0  0  0  0  0  0  0
   37.6218    1.4128    0.0023 N   0  0  0  0  0  0  0  0  0  0  0  0
   36.1994    3.4093    0.0109 C   0  0  0  0  0  0  0  0  0  0  0  0
   34.9927    2.7412   -0.0116 C   0  0  0  0  0  0  0  0  0  0  0  0
   33.7247    3.4121   -0.0302 C   0  0  0  0  0  0  0  0  0  0  0  0
   32.7791    2.4482   -0.0591 C   0  0  0  0  0  0  0  0  0  0  0  0
   33.4736    1.1925   -0.0545 C   0  0  0  0  0  0  0  0  0  0  0  0
   34.8251    1.3856   -0.0262 N   0  0  0  0  0  0  0  0  0  0  0  0
   32.8274   -0.0267   -0.0702 C   0  0  0  0  0  0  0  0  0  0  0  0
   33.4971   -1.2331   -0.0508 C   0  0  0  0  0  0  0  0  0  0  0  0
   32.8272   -2.5022   -0.0515 C   0  0  0  0  0  0  0  0  0  0  0  0
   33.7914   -3.4473   -0.0198 C   0  0  0  0  0  0  0  0  0  0  0  0
   35.0461   -2.7518   -0.0032 C   0  0  0  0  0  0  0  0  0  0  0  0
   34.8522   -1.3997   -0.0218 N   0  0  0  0  0  0  0  0  0  0  0  0
   36.2656   -3.3961    0.0217 C   0  0  0  0  0  0  0  0  0  0  0  0
   37.4738   -2.7303    0.0235 C   0  0  0  0  0  0  0  0  0  0  0  0
   37.6487   -1.3720    0.0084 N   0  0  0  0  0  0  0  0  0  0  0  0
   38.8567   -4.4708    0.0471 H   0  0  0  0  0  0  0  0  0  0  0  0
   40.7558   -2.5483    0.0244 H   0  0  0  0  0  0  0  0  0  0  0  0
   40.7054    2.6493    0.0130 H   0  0  0  0  0  0  0  0  0  0  0  0
   38.7691    4.5347    0.0316 H   0  0  0  0  0  0  0  0  0  0  0  0
   36.1890    4.4885    0.0213 H   0  0  0  0  0  0  0  0  0  0  0  0
   33.6029    4.4780   -0.0232 H   0  0  0  0  0  0  0  0  0  0  0  0
   31.7114    2.5500   -0.0801 H   0  0  0  0  0  0  0  0  0  0  0  0
   31.7485   -0.0372   -0.0931 H   0  0  0  0  0  0  0  0  0  0  0  0
   31.7616   -2.6248   -0.0722 H   0  0  0  0  0  0  0  0  0  0  0  0
   33.6904   -4.5154   -0.0097 H   0  0  0  0  0  0  0  0  0  0  0  0
   36.2764   -4.4752    0.0351 H   0  0  0  0  0  0  0  0  0  0  0  0
  103.3773    0.0391   -0.0085 Ni  0  0  0  0  0  0  0  0  0  0  0  0
  100.8836    3.4019    0.5971 C   0  0  0  0  0  0  0  0  0  0  0  0
   99.9305    2.4594    0.4194 C   0  0  0  0  0  0  0  0  0  0  0  0
  100.6183    1.2223    0.2015 C   0  0  0  0  0  0  0  0  0  0  0  0
   99.9507    0.0112   -0.0031 C   0  0  0  0  0  0  0  0  0  0  0  0
  100.6371   -1.1905   -0.1992 C   0  0  0  0  0  0  0  0  0  0  0  0
   99.9689   -2.4414   -0.3976 C   0  0  0  0  0  0  0  0  0  0  0  0
  100.9366   -3.3723   -0.5562 C   0  0  0  0  0  0  0  0  0  0  0  0
  102.1880   -2.6827   -0.4561 C   0  0  0  0  0  0  0  0  0  0  0  0
  101.9894   -1.3459   -0.2344 N   0  0  0  0  0  0  0  0  0  0  0  0
  103.4075   -3.3148   -0.5830 C   0  0  0  0  0  0  0  0  0  0  0  0
  104.6154   -2.6540   -0.4975 C   0  0  0  0  0  0  0  0  0  0  0  0
  105.8819   -3.3123   -0.6426 C   0  0  0  0  0  0  0  0  0  0  0  0
  106.8295   -2.3607   -0.4996 C   0  0  0  0  0  0  0  0  0  0  0  0
  106.1378   -1.1255   -0.2651 C   0  0  0  0  0  0  0  0  0  0  0  0
  104.7859   -1.3181   -0.2689 N   0  0  0  0  0  0  0  0  0  0  0  0
  106.7868    0.0744   -0.0568 C   0  0  0  0  0  0  0  0  0  0  0  0
  106.1196    1.2590    0.1796 C   0  0  0  0  0  0  0  0  0  0  0  0
  106.7922    2.5054    0.4105 C   0  0  0  0  0  0  0  0  0  0  0  0
  105.8298    3.4333    0.6024 C   0  0  0  0  0  0  0  0  0  0  0  0
  104.5735    2.7505    0.4848 C   0  0  0  0  0  0  0  0  0  0  0  0
  104.7648    1.4223    0.2292 N   0  0  0  0  0  0  0  0  0  0  0  0
  103.3552    3.3856    0.6082 C   0  0  0  0  0  0  0  0  0  0  0  0
  102.1457    2.7341    0.4833 C   0  0  0  0  0  0  0  0  0  0  0  0
  101.9680    1.3983    0.2394 N   0  0  0  0  0  0  0  0  0  0  0  0
  100.7663    4.4510    0.7870 H   0  0  0  0  0  0  0  0  0  0  0  0
   98.8633    2.5652    0.4327 H   0  0  0  0  0  0  0  0  0  0  0  0
   98.9033   -2.5640   -0.4096 H   0  0  0  0  0  0  0  0  0  0  0  0
  100.8358   -4.4264   -0.7270 H   0  0  0  0  0  0  0  0  0  0  0  0
  103.4157   -4.3790   -0.7624 H   0  0  0  0  0  0  0  0  0  0  0  0
  106.0014   -4.3621   -0.8290 H   0  0  0  0  0  0  0  0  0  0  0  0
  107.8970   -2.4587   -0.5422 H   0  0  0  0  0  0  0  0  0  0  0  0
  107.8657    0.0860   -0.0750 H   0  0  0  0  0  0  0  0  0  0  0  0
  107.8582    2.6260    0.4200 H   0  0  0  0  0  0  0  0  0  0  0  0
  105.9330    4.4822    0.8031 H   0  0  0  0  0  0  0  0  0  0  0  0
  103.3465    4.4463    0.8074 H   0  0  0  0  0  0  0  0  0  0  0  0
   41.0605    0.0527   -0.0022 C   0  0  0  0  0  0  0  0  0  0  0  0
   42.2780    0.0611   -0.0076 C   0  0  0  0  0  0  0  0  0  0  0  0
   43.6200    0.0668   -0.0098 C   0  0  0  0  0  0  0  0  0  0  0  0
   44.8376    0.0689   -0.0119 C   0  0  0  0  0  0  0  0  0  0  0  0
   54.4920    0.0523   -0.0200 C   0  0  0  0  0  0  0  0  0  0  0  0
   55.7097    0.0490   -0.0188 C   0  0  0  0  0  0  0  0  0  0  0  0
   57.0509    0.0478   -0.0171 C   0  0  0  0  0  0  0  0  0  0  0  0
   58.2686    0.0460   -0.0186 C   0  0  0  0  0  0  0  0  0  0  0  0
   67.9186    0.0425   -0.0176 C   0  0  0  0  0  0  0  0  0  0  0  0
   69.1362    0.0430   -0.0189 C   0  0  0  0  0  0  0  0  0  0  0  0
   70.4772    0.0442   -0.0191 C   0  0  0  0  0  0  0  0  0  0  0  0
   71.6949    0.0462   -0.0184 C   0  0  0  0  0  0  0  0  0  0  0  0
   81.3450    0.0406   -0.0209 C   0  0  0  0  0  0  0  0  0  0  0  0
   82.5626    0.0389   -0.0209 C   0  0  0  0  0  0  0  0  0  0  0  0
   83.9039    0.0363   -0.0206 C   0  0  0  0  0  0  0  0  0  0  0  0
   85.1216    0.0341   -0.0202 C   0  0  0  0  0  0  0  0  0  0  0  0
   94.7761   -0.0003   -0.0162 C   0  0  0  0  0  0  0  0  0  0  0  0
   95.9937   -0.0025   -0.0145 C   0  0  0  0  0  0  0  0  0  0  0  0
   97.3358   -0.0009   -0.0111 C   0  0  0  0  0  0  0  0  0  0  0  0
   98.5533    0.0015   -0.0053 C   0  0  0  0  0  0  0  0  0  0  0  0
   49.6655    0.0608   -0.0178 Ni  0  0  0  0  0  0  0  0  0  0  0  0
   47.1893   -3.3486    0.3705 C   0  0  0  0  0  0  0  0  0  0  0  0
   46.2302   -2.4012    0.2641 C   0  0  0  0  0  0  0  0  0  0  0  0
   46.9104   -1.1493    0.1216 C   0  0  0  0  0  0  0  0  0  0  0  0
   46.2344    0.0673   -0.0139 C   0  0  0  0  0  0  0  0  0  0  0  0
   46.9144    1.2811   -0.1516 C   0  0  0  0  0  0  0  0  0  0  0  0
   46.2386    2.5353   -0.2931 C   0  0  0  0  0  0  0  0  0  0  0  0
   47.2009    3.4790   -0.4034 C   0  0  0  0  0  0  0  0  0  0  0  0
   48.4556    2.7936   -0.3279 C   0  0  0  0  0  0  0  0  0  0  0  0
   48.2652    1.4461   -0.1733 N   0  0  0  0  0  0  0  0  0  0  0  0
   49.6714    3.4400   -0.4049 C   0  0  0  0  0  0  0  0  0  0  0  0
   50.8850    2.7893   -0.3325 C   0  0  0  0  0  0  0  0  0  0  0  0
   52.1422    3.4697   -0.4126 C   0  0  0  0  0  0  0  0  0  0  0  0
   53.1010    2.5223   -0.3042 C   0  0  0  0  0  0  0  0  0  0  0  0
   52.4204    1.2710   -0.1589 C   0  0  0  0  0  0  0  0  0  0  0  0
   51.0705    1.4412   -0.1772 N   0  0  0  0  0  0  0  0  0  0  0  0
   53.0959    0.0548   -0.0189 C   0  0  0  0  0  0  0  0  0  0  0  0
   52.4162   -1.1591    0.1206 C   0  0  0  0  0  0  0  0  0  0  0  0
   53.0926   -2.4130    0.2637 C   0  0  0  0  0  0  0  0  0  0  0  0
   52.1306   -3.3572    0.3710 C   0  0  0  0  0  0  0  0  0  0  0  0
   50.8757   -2.6723    0.2928 C   0  0  0  0  0  0  0  0  0  0  0  0
   51.0658   -1.3246    0.1394 N   0  0  0  0  0  0  0  0  0  0  0  0
   49.6599   -3.3187    0.3662 C   0  0  0  0  0  0  0  0  0  0  0  0
   48.4463   -2.6677    0.2925 C   0  0  0  0  0  0  0  0  0  0  0  0
   48.2605   -1.3194    0.1399 N   0  0  0  0  0  0  0  0  0  0  0  0
   47.0789   -4.4087    0.4908 H   0  0  0  0  0  0  0  0  0  0  0  0
   45.1636   -2.5131    0.2780 H   0  0  0  0  0  0  0  0  0  0  0  0
   45.1724    2.6511   -0.3043 H   0  0  0  0  0  0  0  0  0  0  0  0
   47.0942    4.5394   -0.5246 H   0  0  0  0  0  0  0  0  0  0  0  0
   49.6730    4.5122   -0.5281 H   0  0  0  0  0  0  0  0  0  0  0  0
   52.2530    4.5296   -0.5351 H   0  0  0  0  0  0  0  0  0  0  0  0
   54.1677    2.6339   -0.3183 H   0  0  0  0  0  0  0  0  0  0  0  0
   54.1588   -2.5283    0.2770 H   0  0  0  0  0  0  0  0  0  0  0  0
   52.2377   -4.4176    0.4919 H   0  0  0  0  0  0  0  0  0  0  0  0
   49.6578   -4.3911    0.4879 H   0  0  0  0  0  0  0  0  0  0  0  0
   63.0938    0.0438   -0.0205 Ni  0  0  0  0  0  0  0  0  0  0  0  0
   60.6221   -3.3675    0.3850 C   0  0  0  0  0  0  0  0  0  0  0  0
   59.6623   -2.4213    0.2745 C   0  0  0  0  0  0  0  0  0  0  0  0
   60.3415   -1.1698    0.1247 C   0  0  0  0  0  0  0  0  0  0  0  0
   59.6647    0.0450   -0.0201 C   0  0  0  0  0  0  0  0  0  0  0  0
   60.3425    1.2592   -0.1659 C   0  0  0  0  0  0  0  0  0  0  0  0
   59.6641    2.5112   -0.3162 C   0  0  0  0  0  0  0  0  0  0  0  0
   60.6246    3.4564   -0.4286 C   0  0  0  0  0  0  0  0  0  0  0  0
   61.8806    2.7742   -0.3456 C   0  0  0  0  0  0  0  0  0  0  0  0
   61.6927    1.4269   -0.1850 N   0  0  0  0  0  0  0  0  0  0  0  0
   63.0952    3.4228   -0.4201 C   0  0  0  0  0  0  0  0  0  0  0  0
   64.3095    2.7743   -0.3408 C   0  0  0  0  0  0  0  0  0  0  0  0
   65.5660    3.4562   -0.4182 C   0  0  0  0  0  0  0  0  0  0  0  0
   66.5257    2.5101   -0.3059 C   0  0  0  0  0  0  0  0  0  0  0  0
   65.8462    1.2581   -0.1609 C   0  0  0  0  0  0  0  0  0  0  0  0
   64.4962    1.4266   -0.1825 N   0  0  0  0  0  0  0  0  0  0  0  0
   66.5228    0.0428   -0.0191 C   0  0  0  0  0  0  0  0  0  0  0  0
   65.8452   -1.1721    0.1216 C   0  0  0  0  0  0  0  0  0  0  0  0
   66.5239   -2.4244    0.2670 C   0  0  0  0  0  0  0  0  0  0  0  0
   65.5636   -3.3701    0.3776 C   0  0  0  0  0  0  0  0  0  0  0  0
   64.3075   -2.6875    0.2989 C   0  0  0  0  0  0  0  0  0  0  0  0
   64.4951   -1.3398    0.1416 N   0  0  0  0  0  0  0  0  0  0  0  0
   63.0928   -3.3355    0.3765 C   0  0  0  0  0  0  0  0  0  0  0  0
   61.8786   -2.6861    0.3021 C   0  0  0  0  0  0  0  0  0  0  0  0
   61.6916   -1.3385    0.1430 N   0  0  0  0  0  0  0  0  0  0  0  0
   60.5127   -4.4271    0.5107 H   0  0  0  0  0  0  0  0  0  0  0  0
   58.5958   -2.5340    0.2896 H   0  0  0  0  0  0  0  0  0  0  0  0
   58.5977    2.6246   -0.3306 H   0  0  0  0  0  0  0  0  0  0  0  0
   60.5159    4.5160   -0.5555 H   0  0  0  0  0  0  0  0  0  0  0  0
   63.0954    4.4947   -0.5469 H   0  0  0  0  0  0  0  0  0  0  0  0
   65.6758    4.5160   -0.5421 H   0  0  0  0  0  0  0  0  0  0  0  0
   67.5922    2.6230   -0.3174 H   0  0  0  0  0  0  0  0  0  0  0  0
   67.5904   -2.5378    0.2796 H   0  0  0  0  0  0  0  0  0  0  0  0
   65.6726   -4.4300    0.5009 H   0  0  0  0  0  0  0  0  0  0  0  0
   63.0923   -4.4074    0.5025 H   0  0  0  0  0  0  0  0  0  0  0  0
   76.5197    0.0433   -0.0198 Ni  0  0  0  0  0  0  0  0  0  0  0  0
   74.0468   -3.3678    0.3817 C   0  0  0  0  0  0  0  0  0  0  0  0
   73.0874   -2.4212    0.2723 C   0  0  0  0  0  0  0  0  0  0  0  0
   73.7672   -1.1698    0.1243 C   0  0  0  0  0  0  0  0  0  0  0  0
   73.0907    0.0455   -0.0189 C   0  0  0  0  0  0  0  0  0  0  0  0
   73.7684    1.2598   -0.1637 C   0  0  0  0  0  0  0  0  0  0  0  0
   73.0901    2.5119   -0.3126 C   0  0  0  0  0  0  0  0  0  0  0  0
   74.0505    3.4569   -0.4270 C   0  0  0  0  0  0  0  0  0  0  0  0
   75.3065    2.7743   -0.3457 C   0  0  0  0  0  0  0  0  0  0  0  0
   75.1185    1.4271   -0.1844 N   0  0  0  0  0  0  0  0  0  0  0  0
   76.5214    3.4220   -0.4221 C   0  0  0  0  0  0  0  0  0  0  0  0
   77.7354    2.7726   -0.3434 C   0  0  0  0  0  0  0  0  0  0  0  0
   78.9920    3.4543   -0.4223 C   0  0  0  0  0  0  0  0  0  0  0  0
   79.9516    2.5082   -0.3103 C   0  0  0  0  0  0  0  0  0  0  0  0
   79.2721    1.2564   -0.1637 C   0  0  0  0  0  0  0  0  0  0  0  0
   77.9220    1.4251   -0.1842 N   0  0  0  0  0  0  0  0  0  0  0  0
   79.9489    0.0412   -0.0207 C   0  0  0  0  0  0  0  0  0  0  0  0
   79.2709   -1.1732    0.1225 C   0  0  0  0  0  0  0  0  0  0  0  0
   79.9490   -2.4255    0.2705 C   0  0  0  0  0  0  0  0  0  0  0  0
   78.9883   -3.3706    0.3821 C   0  0  0  0  0  0  0  0  0  0  0  0
   77.7325   -2.6879    0.3011 C   0  0  0  0  0  0  0  0  0  0  0  0
   77.9207   -1.3405    0.1422 N   0  0  0  0  0  0  0  0  0  0  0  0
   76.5177   -3.3360    0.3768 C   0  0  0  0  0  0  0  0  0  0  0  0
   75.3036   -2.6867    0.3006 C   0  0  0  0  0  0  0  0  0  0  0  0
   75.1172   -1.3389    0.1429 N   0  0  0  0  0  0  0  0  0  0  0  0
   73.9369   -4.4274    0.5053 H   0  0  0  0  0  0  0  0  0  0  0  0
   72.0208   -2.5335    0.2866 H   0  0  0  0  0  0  0  0  0  0  0  0
   72.0236    2.6255   -0.3255 H   0  0  0  0  0  0  0  0  0  0  0  0
   73.9417    4.5166   -0.5545 H   0  0  0  0  0  0  0  0  0  0  0  0
   76.5222    4.4937   -0.5497 H   0  0  0  0  0  0  0  0  0  0  0  0
   79.1016    4.5141   -0.5466 H   0  0  0  0  0  0  0  0  0  0  0  0
   81.0181    2.6209   -0.3226 H   0  0  0  0  0  0  0  0  0  0  0  0
   81.0154   -2.5393    0.2843 H   0  0  0  0  0  0  0  0  0  0  0  0
   79.0967   -4.4303    0.5077 H   0  0  0  0  0  0  0  0  0  0  0  0
   76.5171   -4.4080    0.5025 H   0  0  0  0  0  0  0  0  0  0  0  0
   89.9481    0.0163   -0.0225 Ni  0  0  0  0  0  0  0  0  0  0  0  0
   87.4647   -3.3869    0.3775 C   0  0  0  0  0  0  0  0  0  0  0  0
   86.5078   -2.4369    0.2752 C   0  0  0  0  0  0  0  0  0  0  0  0
   87.1908   -1.1876    0.1244 C   0  0  0  0  0  0  0  0  0  0  0  0
   86.5177    0.0293   -0.0200 C   0  0  0  0  0  0  0  0  0  0  0  0
   87.1998    1.2412   -0.1654 C   0  0  0  0  0  0  0  0  0  0  0  0
   86.5261    2.4955   -0.3170 C   0  0  0  0  0  0  0  0  0  0  0  0
   87.4900    3.4381   -0.4224 C   0  0  0  0  0  0  0  0  0  0  0  0
   88.7435    2.7518   -0.3339 C   0  0  0  0  0  0  0  0  0  0  0  0
   88.5506    1.4046   -0.1788 N   0  0  0  0  0  0  0  0  0  0  0  0
   89.9606    3.3971   -0.3937 C   0  0  0  0  0  0  0  0  0  0  0  0
   91.1727    2.7450   -0.3081 C   0  0  0  0  0  0  0  0  0  0  0  0
   92.4311    3.4254   -0.3669 C   0  0  0  0  0  0  0  0  0  0  0  0
   93.3882    2.4761   -0.2595 C   0  0  0  0  0  0  0  0  0  0  0  0
   92.7056    1.2235   -0.1363 C   0  0  0  0  0  0  0  0  0  0  0  0
   91.3558    1.3953   -0.1645 N   0  0  0  0  0  0  0  0  0  0  0  0
   93.3791    0.0040   -0.0175 C   0  0  0  0  0  0  0  0  0  0  0  0
   92.6967   -1.2107    0.0981 C   0  0  0  0  0  0  0  0  0  0  0  0
   93.3700   -2.4686    0.2195 C   0  0  0  0  0  0  0  0  0  0  0  0
   92.4058   -3.4112    0.3221 C   0  0  0  0  0  0  0  0  0  0  0  0
   91.1525   -2.7215    0.2624 C   0  0  0  0  0  0  0  0  0  0  0  0
   91.3456   -1.3729    0.1222 N   0  0  0  0  0  0  0  0  0  0  0  0
   89.9354   -3.3648    0.3456 C   0  0  0  0  0  0  0  0  0  0  0  0
   88.7233   -2.7101    0.2882 C   0  0  0  0  0  0  0  0  0  0  0  0
   88.5404   -1.3613    0.1356 N   0  0  0  0  0  0  0  0  0  0  0  0
   87.3518   -4.4464    0.5010 H   0  0  0  0  0  0  0  0  0  0  0  0
   85.4410   -2.5456    0.2964 H   0  0  0  0  0  0  0  0  0  0  0  0
   85.4601    2.6123   -0.3364 H   0  0  0  0  0  0  0  0  0  0  0  0
   87.3850    4.4982   -0.5473 H   0  0  0  0  0  0  0  0  0  0  0  0
   89.9648    4.4698   -0.5130 H   0  0  0  0  0  0  0  0  0  0  0  0
   92.5436    4.4865   -0.4764 H   0  0  0  0  0  0  0  0  0  0  0  0
   94.4550    2.5871   -0.2621 H   0  0  0  0  0  0  0  0  0  0  0  0
   94.4359   -2.5872    0.2246 H   0  0  0  0  0  0  0  0  0  0  0  0
   92.5103   -4.4732    0.4294 H   0  0  0  0  0  0  0  0  0  0  0  0
   89.9316   -4.4378    0.4622 H   0  0  0  0  0  0  0  0  0  0  0  0
  2  3  2  0  0  0  0
  3  4  1  0  0  0  0
  4  5  4  0  0  0  0
  5  6  4  0  0  0  0
  6  7  1  0  0  0  0
  7  8  2  0  0  0  0
  8  9  1  0  0  0  0
  1 10  1  0  0  0  0
  6 10  4  0  0  0  0
  9 10  4  0  0  0  0
  9 11  4  0  0  0  0
 11 12  4  0  0  0  0
 12 13  1  0  0  0  0
 13 14  2  0  0  0  0
 14 15  1  0  0  0  0
  1 16  1  0  0  0  0
 12 16  4  0  0  0  0
 15 16  4  0  0  0  0
 15 17  4  0  0  0  0
 17 18  4  0  0  0  0
 18 19  1  0  0  0  0
 19 20  2  0  0  0  0
 20 21  1  0  0  0  0
  1 22  1  0  0  0  0
 18 22  4  0  0  0  0
 21 22  4  0  0  0  0
 21 23  4  0  0  0  0
  2 24  1  0  0  0  0
 23 24  4  0  0  0  0
  1 25  1  0  0  0  0
  4 25  4  0  0  0  0
 24 25  4  0  0  0  0
  2 26  1  0  0  0  0
  3 27  1  0  0  0  0
  7 28  1  0  0  0  0
  8 29  1  0  0  0  0
 11 30  1  0  0  0  0
 13 31  1  0  0  0  0
 14 32  1  0  0  0  0
 17 33  1  0  0  0  0
 19 34  1  0  0  0  0
 20 35  1  0  0  0  0
 23 36  1  0  0  0  0
 38 39  2  0  0  0  0
 39 40  1  0  0  0  0
 40 41  4  0  0  0  0
 41 42  4  0  0  0  0
 42 43  1  0  0  0  0
 43 44  2  0  0  0  0
 44 45  1  0  0  0  0
 37 46  1  0  0  0  0
 42 46  4  0  0  0  0
 45 46  4  0  0  0  0
 45 47  4  0  0  0  0
 47 48  4  0  0  0  0
 48 49  1  0  0  0  0
 49 50  2  0  0  0  0
 50 51  1  0  0  0  0
 37 52  1  0  0  0  0
 48 52  4  0  0  0  0
 51 52  4  0  0  0  0
 51 53  4  0  0  0  0
 53 54  4  0  0  0  0
 54 55  1  0  0  0  0
 55 56  2  0  0  0  0
 56 57  1  0  0  0  0
 37 58  1  0  0  0  0
 54 58  4  0  0  0  0
 57 58  4  0  0  0  0
 57 59  4  0  0  0  0
 38 60  1  0  0  0  0
 59 60  4  0  0  0  0
 37 61  1  0  0  0  0
 40 61  4  0  0  0  0
 60 61  4  0  0  0  0
 38 62  1  0  0  0  0
 39 63  1  0  0  0  0
 43 64  1  0  0  0  0
 44 65  1  0  0  0  0
 47 66  1  0  0  0  0
 49 67  1  0  0  0  0
 50 68  1  0  0  0  0
 53 69  1  0  0  0  0
 55 70  1  0  0  0  0
 56 71  1  0  0  0  0
 59 72  1  0  0  0  0
  5 73  1  0  0  0  0
 73 74  3  0  0  0  0
 74 75  4  0  0  0  0
 75 76  3  0  0  0  0
 77 78  3  0  0  0  0
 78 79  4  0  0  0  0
 79 80  3  0  0  0  0
 81 82  3  0  0  0  0
 82 83  4  0  0  0  0
 83 84  3  0  0  0  0
 85 86  3  0  0  0  0
 86 87  4  0  0  0  0
 87 88  3  0  0  0  0
 89 90  3  0  0  0  0
 90 91  4  0  0  0  0
 41 92  1  0  0  0  0
 91 92  3  0  0  0  0
 94 95  2  0  0  0  0
 95 96  1  0  0  0  0
 76 97  1  0  0  0  0
 96 97  4  0  0  0  0
 97 98  4  0  0  0  0
 98 99  1  0  0  0  0
 99100  2  0  0  0  0
100101  1  0  0  0  0
 93102  1  0  0  0  0
 98102  4  0  0  0  0
101102  4  0  0  0  0
101103  4  0  0  0  0
103104  4  0  0  0  0
104105  1  0  0  0  0
105106  2  0  0  0  0
106107  1  0  0  0  0
 93108  1  0  0  0  0
104108  4  0  0  0  0
107108  4  0  0  0  0
 77109  1  0  0  0  0
107109  4  0  0  0  0
109110  4  0  0  0  0
110111  1  0  0  0  0
111112  2  0  0  0  0
112113  1  0  0  0  0
 93114  1  0  0  0  0
110114  4  0  0  0  0
113114  4  0  0  0  0
113115  4  0  0  0  0
 94116  1  0  0  0  0
115116  4  0  0  0  0
 93117  1  0  0  0  0
 96117  4  0  0  0  0
116117  4  0  0  0  0
 94118  1  0  0  0  0
 95119  1  0  0  0  0
 99120  1  0  0  0  0
100121  1  0  0  0  0
103122  1  0  0  0  0
105123  1  0  0  0  0
106124  1  0  0  0  0
111125  1  0  0  0  0
112126  1  0  0  0  0
115127  1  0  0  0  0
129130  2  0  0  0  0
130131  1  0  0  0  0
 80132  1  0  0  0  0
131132  4  0  0  0  0
132133  4  0  0  0  0
133134  1  0  0  0  0
134135  2  0  0  0  0
135136  1  0  0  0  0
128137  1  0  0  0  0
133137  4  0  0  0  0
136137  4  0  0  0  0
136138  4  0  0  0  0
138139  4  0  0  0  0
139140  1  0  0  0  0
140141  2  0  0  0  0
141142  1  0  0  0  0
128143  1  0  0  0  0
139143  4  0  0  0  0
142143  4  0  0  0  0
 81144  1  0  0  0  0
142144  4  0  0  0  0
144145  4  0  0  0  0
145146  1  0  0  0  0
146147  2  0  0  0  0
147148  1  0  0  0  0
128149  1  0  0  0  0
145149  4  0  0  0  0
148149  4  0  0  0  0
148150  4  0  0  0  0
129151  1  0  0  0  0
150151  4  0  0  0  0
128152  1  0  0  0  0
131152  4  0  0  0  0
151152  4  0  0  0  0
129153  1  0  0  0  0
130154  1  0  0  0  0
134155  1  0  0  0  0
135156  1  0  0  0  0
138157  1  0  0  0  0
140158  1  0  0  0  0
141159  1  0  0  0  0
146160  1  0  0  0  0
147161  1  0  0  0  0
150162  1  0  0  0  0
164165  2  0  0  0  0
165166  1  0  0  0  0
 84167  1  0  0  0  0
166167  4  0  0  0  0
167168  4  0  0  0  0
168169  1  0  0  0  0
169170  2  0  0  0  0
170171  1  0  0  0  0
163172  1  0  0  0  0
168172  4  0  0  0  0
171172  4  0  0  0  0
171173  4  0  0  0  0
173174  4  0  0  0  0
174175  1  0  0  0  0
175176  2  0  0  0  0
176177  1  0  0  0  0
163178  1  0  0  0  0
174178  4  0  0  0  0
177178  4  0  0  0  0
 85179  1  0  0  0  0
177179  4  0  0  0  0
179180  4  0  0  0  0
180181  1  0  0  0  0
181182  2  0  0  0  0
182183  1  0  0  0  0
163184  1  0  0  0  0
180184  4  0  0  0  0
183184  4  0  0  0  0
183185  4  0  0  0  0
164186  1  0  0  0  0
185186  4  0  0  0  0
163187  1  0  0  0  0
166187  4  0  0  0  0
186187  4  0  0  0  0
164188  1  0  0  0  0
165189  1  0  0  0  0
169190  1  0  0  0  0
170191  1  0  0  0  0
173192  1  0  0  0  0
175193  1  0  0  0  0
176194  1  0  0  0  0
181195  1  0  0  0  0
182196  1  0  0  0  0
185197  1  0  0  0  0
199200  2  0  0  0  0
200201  1  0  0  0  0
 88202  1  0  0  0  0
201202  4  0  0  0  0
202203  4  0  0  0  0
203204  1  0  0  0  0
204205  2  0  0  0  0
205206  1  0  0  0  0
198207  1  0  0  0  0
203207  4  0  0  0  0
206207  4  0  0  0  0
206208  4  0  0  0  0
208209  4  0  0  0  0
209210  1  0  0  0  0
210211  2  0  0  0  0
211212  1  0  0  0  0
198213  1  0  0  0  0
209213  4  0  0  0  0
212213  4  0  0  0  0
 89214  1  0  0  0  0
212214  4  0  0  0  0
214215  4  0  0  0  0
215216  1  0  0  0  0
216217  2  0  0  0  0
217218  1  0  0  0  0
198219  1  0  0  0  0
215219  4  0  0  0  0
218219  4  0  0  0  0
218220  4  0  0  0  0
199221  1  0  0  0  0
220221  4  0  0  0  0
198222  1  0  0  0  0
201222  4  0  0  0  0
221222  4  0  0  0  0
199223  1  0  0  0  0
200224  1  0  0  0  0
204225  1  0  0  0  0
205226  1  0  0  0  0
208227  1  0  0  0  0
210228  1  0  0  0  0
211229  1  0  0  0  0
216230  1  0  0  0  0
217231  1  0  0  0  0
220232  1  0  0  0  0
M  END
