198

C 34.077072 3.428410 0.185698
C 35.033310 2.480165 0.146823
C 34.333302 1.211715 0.048412
C 34.995842 -0.030845 -0.012849
C 34.345748 -1.272186 -0.111793
C 34.950036 -2.555675 -0.185278
C 33.946700 -3.476956 -0.277113
C 32.708282 -2.775793 -0.261232
N 33.002103 -1.449654 -0.160242
C 31.440609 -3.334114 -0.334401
C 30.223890 -2.666335 -0.318668
C 28.945881 -3.359057 -0.400035
C 27.997759 -2.405043 -0.355017
C 28.703785 -1.137595 -0.247177
N 30.039207 -1.332990 -0.228437
C 28.058496 0.090504 -0.175355
C 28.683880 1.323804 -0.075594
C 28.078099 2.610698 -0.000864
C 29.078129 3.533768 0.083515
C 30.320370 2.835277 0.062845
N 30.030020 1.511148 -0.033232
C 31.588497 3.393372 0.127929
C 32.805602 2.728877 0.110842
N 33.002445 1.390919 0.028230
H 34.184555 4.493697 0.257209
H 36.100032 2.589427 0.178909
H 36.007518 -2.734540 -0.170297
H 34.044607 -4.542625 -0.349716
H 32.328173 -0.693571 -0.126240
H 31.398717 -4.411804 -0.411716
H 28.832767 -4.423414 -0.479018
H 26.930036 -2.507904 -0.388941
H 26.978354 0.084729 -0.200279
H 27.020619 2.790407 -0.011405
H 28.978991 4.599682 0.153840
H 30.701899 0.754156 -0.070651
H 31.632222 4.471385 0.200947
C 83.271796 -3.398378 0.484308
C 82.315807 -2.450473 0.432571
C 83.013966 -1.188994 0.259533
C 82.351034 0.050955 0.161196
C 82.999918 1.288369 0.015283
C 82.395135 2.570881 -0.070140
C 83.396843 3.488888 -0.203211
C 84.634474 2.786249 -0.205248
N 84.342151 1.463005 -0.068215
C 85.899972 3.339652 -0.332727
C 87.114211 2.667555 -0.354755
C 88.389354 3.352705 -0.510496
C 89.334839 2.395128 -0.494871
C 88.630261 1.133413 -0.326928
N 87.298101 1.335404 -0.246841
C 89.274079 -0.095687 -0.259324
C 88.651211 -1.323055 -0.092793
C 89.257131 -2.609346 -0.009362
C 88.261020 -3.525142 0.159010
C 87.021000 -2.822799 0.181056
N 87.308752 -1.503674 0.026169
C 85.756524 -3.373551 0.328444
C 84.540963 -2.706119 0.337693
N 84.343375 -1.371980 0.207662
H 83.165333 -4.459303 0.605263
H 81.250476 -2.555515 0.502587
H 81.338518 2.751377 -0.032102
H 83.298130 4.553113 -0.293688
H 85.016143 0.706939 -0.035680
H 85.941638 4.415469 -0.432634
H 88.502410 4.414819 -0.615483
H 90.399957 2.492253 -0.583585
H 90.351459 -0.095504 -0.340677
H 90.312079 -2.793633 -0.070936
H 88.361274 -4.588621 0.258580
H 86.637263 -0.745901 -0.000230
H 85.714357 -4.447970 0.443347
C 36.391693 -0.032889 0.023916
C 37.610097 -0.021587 0.054509
C 38.950585 -0.009899 0.077343
C 40.169300 0.009374 0.092683
C 49.984704 -0.023587 -0.026991
C 51.203881 -0.001616 -0.025936
C 52.543734 0.017592 -0.024089
C 53.762814 0.037541 -0.015000
C 63.586262 -0.014390 -0.043101
C 64.805412 -0.000392 -0.029341
C 66.145170 0.016172 -0.011548
C 67.364121 0.033465 0.011898
C 77.177305 0.019865 0.210927
C 78.396154 0.035736 0.220452
C 79.736701 0.046513 0.216602
C 80.955423 0.055143 0.201398
C 42.547958 -3.408028 0.450140
C 41.572247 -2.482765 0.363849
C 42.246240 -1.206535 0.212695
C 41.564335 0.021067 0.090584
C 42.209628 1.262373 -0.043300
C 41.610131 2.543018 -0.164007
C 42.619083 3.456807 -0.277724
C 43.854133 2.752369 -0.229834
N 43.554503 1.432220 -0.084976
C 45.121270 3.312698 -0.320298
C 46.348807 2.671869 -0.280523
C 47.606213 3.392354 -0.389035
C 48.581768 2.466830 -0.304104
C 47.907716 1.191334 -0.146244
N 46.573549 1.342984 -0.137130
C 48.590287 -0.035740 -0.018456
C 47.945222 -1.276466 0.123193
C 48.544650 -2.556693 0.248063
C 47.535547 -3.470398 0.361274
C 46.300454 -2.766297 0.308835
N 46.600418 -1.446168 0.162990
C 45.033274 -3.326914 0.393921
C 43.805399 -2.686604 0.348939
N 43.580829 -1.357705 0.208037
H 42.462147 -4.470975 0.569610
H 40.507782 -2.611987 0.397125
H 40.553376 2.726265 -0.162547
H 42.526283 4.519968 -0.385359
H 44.212157 0.663072 -0.019598
H 45.150572 4.387656 -0.437185
H 47.691926 4.454928 -0.511883
H 49.646116 2.595720 -0.341706
H 49.601421 -2.739889 0.248697
H 47.628277 -4.533369 0.470990
H 45.943162 -0.676999 0.093812
H 45.003870 -4.401953 0.510208
C 56.135370 -3.377938 0.396797
C 55.160975 -2.453483 0.289132
C 55.837063 -1.179368 0.130438
C 55.157137 0.047333 -0.014378
C 55.806721 1.285358 -0.159733
C 55.213183 2.566204 -0.303419
C 56.226919 3.475198 -0.413959
C 57.458892 2.767432 -0.340540
N 57.152585 1.449909 -0.185786
C 58.728426 3.324441 -0.416796
C 59.955073 2.683650 -0.353525
C 61.213845 3.403374 -0.450352
C 62.188268 2.478382 -0.347385
C 61.512260 1.204166 -0.189501
N 60.177944 1.355939 -0.197713
C 62.191929 -0.022741 -0.045549
C 61.542195 -1.260383 0.102300
C 62.135810 -2.541010 0.247601
C 61.122141 -3.449529 0.362178
C 59.890178 -2.741715 0.289343
N 60.196367 -1.424604 0.131104
C 58.620747 -3.298551 0.367797
C 57.394141 -2.658110 0.301266
N 57.171341 -1.330780 0.142009
H 56.047878 -4.439460 0.527175
H 54.096222 -2.582596 0.311031
H 54.157176 2.753190 -0.318108
H 56.139403 4.537361 -0.535146
H 57.804216 0.677219 -0.101467
H 58.760720 4.398346 -0.542693
H 61.301280 4.465173 -0.578547
H 63.253031 2.607101 -0.371951
H 63.191784 -2.728134 0.260581
H 61.209634 -4.511440 0.485493
H 59.545056 -0.651651 0.046506
H 58.588474 -4.372035 0.497141
C 69.735482 -3.374884 0.485807
C 68.761751 -2.453536 0.349745
C 69.438289 -1.177632 0.206307
C 68.758249 0.046193 0.040069
C 69.405399 1.286384 -0.097283
C 68.807773 2.562418 -0.265999
C 69.817996 3.477551 -0.355026
C 71.051983 2.778605 -0.242666
N 70.750240 1.459811 -0.088433
C 72.319958 3.342259 -0.284378
C 73.546662 2.706449 -0.181402
C 74.805399 3.429692 -0.246553
C 75.779285 2.507880 -0.114649
C 75.102896 1.232180 0.030050
N 73.768691 1.380236 -0.013420
C 75.782530 0.007907 0.192386
C 75.135425 -1.231825 0.331784
C 75.733279 -2.508196 0.497385
C 74.723109 -3.422994 0.590376
C 73.488955 -2.723628 0.482896
N 73.790358 -1.404969 0.328382
C 72.220757 -3.287091 0.527239
C 70.994292 -2.651394 0.423429
N 70.772097 -1.325121 0.254093
H 69.647752 -4.436434 0.615909
H 67.697139 -2.585594 0.342642
H 67.751355 2.742009 -0.311196
H 69.726683 4.538209 -0.486190
H 71.406631 0.694300 0.018802
H 72.351159 4.415580 -0.415132
H 74.893216 4.491291 -0.376188
H 76.843992 2.639274 -0.111312
H 76.789841 -2.688078 0.537836
H 74.814639 -4.483741 0.720499
H 73.133769 -0.639355 0.223186
H 72.189539 -4.360318 0.658649
