158

C 26.184090 3.432163 0.174168
C 27.143027 2.486608 0.134270
C 26.446417 1.215930 0.042757
C 27.111321 -0.025315 -0.019517
C 26.460506 -1.267349 -0.105155
C 27.062409 -2.552104 -0.173802
C 26.056926 -3.472200 -0.252812
C 24.819531 -2.769012 -0.234554
N 25.116139 -1.442887 -0.143007
C 23.551679 -3.327845 -0.300602
C 22.333684 -2.662314 -0.288823
C 21.057430 -3.358632 -0.367975
C 20.106812 -2.406672 -0.331450
C 20.809532 -1.136945 -0.230180
N 22.145495 -1.328974 -0.207376
C 20.162169 0.090586 -0.167361
C 20.787819 1.324185 -0.072694
C 20.184362 2.612478 -0.005448
C 21.186298 3.533754 0.075777
C 22.427446 2.832791 0.060169
N 22.134400 1.508914 -0.029596
C 23.695748 3.390958 0.121846
C 24.914256 2.728819 0.106166
N 25.114803 1.391245 0.028175
H 26.288841 4.497991 0.241751
H 28.209559 2.598988 0.162626
H 28.119653 -2.732586 -0.163900
H 26.152527 -4.538517 -0.318847
H 24.446532 -0.682687 -0.111357
H 23.510734 -4.406084 -0.371218
H 20.947015 -4.423751 -0.440473
H 19.039413 -2.512586 -0.367238
H 19.082130 0.083840 -0.194997
H 19.127291 2.794504 -0.018467
H 21.089355 4.600236 0.140558
H 22.801809 0.747545 -0.061205
H 23.738357 4.469435 0.189107
C 61.829580 -3.415952 0.381753
C 60.869520 -2.472442 0.324002
C 61.563800 -1.205480 0.178824
C 60.896804 0.032234 0.080487
C 61.543482 1.271606 -0.059449
C 60.936187 2.551479 -0.163318
C 61.937170 3.471840 -0.284923
C 63.177086 2.773581 -0.258470
N 62.886514 1.450138 -0.120332
C 64.442647 3.332825 -0.356761
C 65.661422 2.668871 -0.338435
C 66.936094 3.362774 -0.454599
C 67.887665 2.412573 -0.400727
C 67.187046 1.146379 -0.251432
N 65.851393 1.338671 -0.217909
C 67.836644 -0.078054 -0.158404
C 67.215293 -1.309166 -0.015535
C 67.823915 -2.592850 0.085669
C 66.826468 -3.513954 0.212027
C 65.582974 -2.817485 0.191133
N 65.870149 -1.496396 0.052948
C 64.317038 -3.375559 0.290706
C 63.097699 -2.715056 0.270917
N 62.895144 -1.380871 0.150525
H 61.726641 -4.478919 0.486856
H 59.803574 -2.584072 0.371054
H 59.878487 2.728644 -0.146039
H 61.836797 4.535069 -0.384707
H 63.560610 0.694983 -0.070797
H 64.480868 4.408343 -0.461483
H 67.044829 4.425198 -0.561114
H 68.954492 2.517486 -0.452972
H 68.916241 -0.070796 -0.200754
H 68.881311 -2.772113 0.063444
H 66.928061 -4.577378 0.310953
H 65.198039 -0.740086 0.005605
H 64.277210 -4.451176 0.395096
C 28.507621 -0.027017 -0.000422
C 29.726447 -0.024193 0.012250
C 31.067296 -0.016654 0.022043
C 32.286306 -0.006147 0.025288
C 42.117788 -0.014663 0.003976
C 43.337007 0.003580 0.011527
C 44.677117 0.022481 0.022877
C 45.896254 0.040439 0.037808
C 55.722833 0.016526 0.170306
C 56.941787 0.024383 0.161542
C 58.282353 0.030541 0.141485
C 59.501010 0.034411 0.119042
C 34.678638 -3.419835 0.376235
C 33.698761 -2.499443 0.284034
C 34.367215 -1.218880 0.147579
C 33.681449 0.006578 0.025461
C 34.326226 1.249082 -0.100559
C 33.728393 2.529728 -0.227906
C 34.739045 3.443379 -0.326462
C 35.973605 2.738960 -0.261813
N 35.671699 1.418620 -0.124449
C 37.240837 3.302322 -0.329579
C 38.470931 2.667378 -0.273032
C 39.725628 3.395805 -0.358238
C 40.705425 2.475333 -0.266343
C 40.036874 1.195097 -0.126728
N 38.701555 1.339171 -0.134757
C 40.723195 -0.029779 0.002245
C 40.078306 -1.271843 0.133425
C 40.676169 -2.551926 0.266273
C 39.665523 -3.465764 0.363181
C 38.430869 -2.762049 0.292087
N 38.732914 -1.441748 0.153080
C 37.163638 -3.325678 0.355058
C 35.933362 -2.690964 0.294326
N 35.702840 -1.362918 0.156969
H 34.597243 -4.483928 0.488576
H 32.634663 -2.634665 0.303911
H 32.671766 2.713217 -0.241402
H 34.647613 4.506649 -0.434377
H 36.325067 0.646236 -0.050311
H 37.268058 4.377955 -0.441266
H 39.807135 4.459759 -0.471706
H 41.769483 2.610505 -0.287524
H 41.732850 -2.734863 0.283651
H 39.756877 -4.528759 0.473978
H 38.079730 -0.669645 0.074505
H 37.136093 -4.401262 0.467222
C 48.273920 -3.366430 0.502979
C 47.298225 -2.446386 0.371846
C 47.972206 -1.170030 0.222482
C 47.290762 0.053188 0.056828
C 47.939716 1.291425 -0.089522
C 47.345585 2.568212 -0.264644
C 48.358575 3.479302 -0.362911
C 49.590957 2.777315 -0.249333
N 49.285268 1.460544 -0.086314
C 50.859805 3.338857 -0.295277
C 52.087303 2.704361 -0.191698
C 53.344886 3.429653 -0.259252
C 54.320710 2.509203 -0.131437
C 53.646880 1.232391 0.013629
N 52.312080 1.378725 -0.024173
C 54.327819 0.007886 0.168675
C 53.679037 -1.230293 0.314901
C 54.273444 -2.508220 0.480161
C 53.260463 -3.418978 0.581790
C 52.027924 -2.715560 0.479855
N 52.333253 -1.398398 0.320786
C 50.758901 -3.276580 0.531301
C 49.531535 -2.641534 0.432740
N 49.306695 -1.315951 0.262835
H 48.187879 -4.427956 0.634403
H 46.233730 -2.579662 0.371265
H 46.289624 2.750949 -0.307930
H 48.270138 4.539272 -0.501546
H 49.937294 0.691421 0.023775
H 50.891358 4.411669 -0.430467
H 53.430745 4.491593 -0.387441
H 55.385244 2.642407 -0.130156
H 55.329566 -2.691901 0.514989
H 53.349012 -4.479672 0.714637
H 51.681176 -0.628471 0.216843
H 50.727680 -4.349680 0.664226
