304

C 68.571189 3.513305 0.790086
C 69.461167 2.573046 0.591891
C 68.799665 1.312971 0.291084
C 69.158104 0.007309 0.002402
C 68.332925 -1.123763 -0.082814
C 68.788491 -2.332487 0.498493
C 67.815796 -3.265033 0.298338
C 66.784703 -2.597332 -0.404649
N 67.121428 -1.316473 -0.621564
C 65.626742 -3.323448 -0.736367
C 64.308641 -2.880752 -0.622832
C 62.996295 -3.482886 -0.719811
C 62.074667 -2.536238 -0.513726
C 62.771553 -1.290408 -0.276995
N 64.092626 -1.570160 -0.356681
C 62.372311 0.011589 -0.008992
C 63.204923 1.148265 0.066917
C 62.770780 2.350255 -0.543224
C 63.766293 3.266643 -0.351268
C 64.780444 2.593400 0.372663
N 64.415247 1.325578 0.611487
C 65.950085 3.300356 0.694163
C 67.265338 2.896832 0.624147
N 67.454961 1.585728 0.327745
H 68.738454 4.541849 1.028676
H 70.531426 2.696383 0.640909
H 69.749012 -2.518190 1.017070
H 67.852678 -4.321643 0.623665
H 66.518143 -0.549062 -1.169083
H 65.715133 -4.358875 -1.114713
H 62.797619 -4.543587 -0.928556
H 61.005257 -2.728173 -0.532959
H 61.297368 0.100859 0.128753
H 61.817125 2.541812 -1.072021
H 63.751871 4.316872 -0.697709
H 65.008571 0.568135 1.183484
H 65.881577 4.357761 1.050879
C 136.798439 -3.490317 0.826456
C 135.908462 -2.552167 0.618506
C 136.569963 -1.295284 0.304628
C 136.211525 0.007309 0.002402
C 137.036703 1.137435 -0.094557
C 136.581138 2.352132 0.474166
C 137.553832 3.282549 0.264336
C 138.584926 2.607583 -0.431679
N 138.248201 1.324539 -0.635279
C 139.742887 3.330214 -0.770919
C 141.060988 2.888721 -0.652793
C 142.373334 3.489816 -0.756021
C 143.294962 2.545359 -0.540115
C 142.598076 1.302055 -0.290458
N 141.277002 1.580964 -0.373045
C 142.997318 0.002911 -0.008947
C 142.164706 -1.132915 0.078763
C 142.598849 -2.341177 -0.518861
C 141.603336 -3.255522 -0.317398
C 140.589185 -2.574797 0.399502
N 140.954382 -1.304563 0.625146
C 139.419543 -3.278376 0.728327
C 138.104290 -2.875600 0.654124
N 137.914668 -1.567646 0.344121
H 136.631175 -4.516328 1.075715
H 134.838203 -2.674989 0.668803
H 135.620617 2.543210 0.990786
H 137.516950 4.342480 0.578672
H 138.851486 0.551484 -1.174798
H 139.654496 4.361656 -1.159999
H 142.572009 4.548291 -0.975770
H 144.364371 2.737083 -0.561341
H 144.072261 -0.084923 0.129718
H 143.552503 -2.538216 -1.045640
H 141.617757 -4.309293 -0.652913
H 140.361057 -0.541220 1.189245
H 139.488051 -4.332019 1.096005
C 71.385548 0.007309 0.002402
C 72.601753 0.007309 0.002402
C 81.615936 0.007309 0.002402
C 82.832141 0.007309 0.002402
C 91.846324 0.007309 0.002402
C 93.062529 0.007309 0.002402
C 102.076712 0.007309 0.002402
C 103.292917 0.007309 0.002402
C 112.307099 0.007309 0.002402
C 113.523305 0.007309 0.002402
C 122.537487 0.007309 0.002402
C 123.753693 0.007309 0.002402
C 132.767875 0.007309 0.002402
C 133.984081 0.007309 0.002402
C 74.316901 -3.592251 0.000912
C 73.442351 -2.597346 -0.009390
C 74.113815 -1.318563 0.003800
C 73.716784 -0.002978 -0.000979
C 74.527976 1.141346 -0.155105
C 74.048951 2.193862 -0.967170
C 75.036036 3.136615 -0.958639
C 76.083307 2.634820 -0.145836
N 75.744454 1.428452 0.326910
C 77.243684 3.412803 0.008514
C 78.564674 2.954930 -0.020880
C 79.877243 3.583063 -0.082007
C 80.791356 2.627999 -0.084591
C 80.117809 1.341125 -0.025401
N 78.805751 1.629724 0.009388
C 80.520093 -0.002978 -0.000979
C 79.687938 -1.116767 0.181302
C 80.127897 -2.148424 1.044613
C 79.129715 -3.071764 1.049234
C 78.106799 -2.591827 0.195805
N 78.473976 -1.410580 -0.314703
C 76.949890 -3.367234 0.038736
C 75.629114 -2.947756 0.022051
N 75.452724 -1.609552 0.022952
H 74.148382 -4.654418 -0.004490
H 72.354523 -2.783382 -0.026416
H 73.084873 2.269233 -1.501487
H 74.997889 4.107730 -1.491082
H 76.352132 0.791353 1.015539
H 77.188585 4.499065 0.152629
H 80.095670 4.651055 -0.120338
H 81.867671 2.774042 -0.124218
H 81.081906 -2.212836 1.602161
H 79.155133 -4.017082 1.624554
H 77.886900 -0.791123 -1.038353
H 77.010608 -4.478974 -0.075393
C 84.547289 -3.592251 0.000912
C 83.672739 -2.597346 -0.009390
C 84.344203 -1.318563 0.003800
C 83.947172 -0.002978 -0.000979
C 84.758364 1.141346 -0.155105
C 84.279338 2.193862 -0.967170
C 85.266424 3.136615 -0.958639
C 86.313695 2.634820 -0.145836
N 85.974842 1.428452 0.326910
C 87.474072 3.412803 0.008514
C 88.795061 2.954930 -0.020880
C 90.107631 3.583063 -0.082007
C 91.021744 2.627999 -0.084591
C 90.348197 1.341125 -0.025401
N 89.036139 1.629724 0.009388
C 90.750480 -0.002978 -0.000979
C 89.918326 -1.116767 0.181302
C 90.358285 -2.148424 1.044613
C 89.360102 -3.071764 1.049234
C 88.337187 -2.591827 0.195805
N 88.704364 -1.410580 -0.314703
C 87.180277 -3.367234 0.038736
C 85.859502 -2.947756 0.022051
N 85.683111 -1.609552 0.022952
H 84.378770 -4.654418 -0.004490
H 82.584911 -2.783382 -0.026416
H 83.315261 2.269233 -1.501487
H 85.228277 4.107730 -1.491082
H 86.582520 0.791353 1.015539
H 87.418973 4.499065 0.152629
H 90.326058 4.651055 -0.120338
H 92.098058 2.774042 -0.124218
H 91.312294 -2.212836 1.602161
H 89.385521 -4.017082 1.624554
H 88.117288 -0.791123 -1.038353
H 87.240996 -4.478974 -0.075393
C 94.777677 -3.592251 0.000912
C 93.903127 -2.597346 -0.009390
C 94.574591 -1.318563 0.003800
C 94.177560 -0.002978 -0.000979
C 94.988752 1.141346 -0.155105
C 94.509726 2.193862 -0.967170
C 95.496812 3.136615 -0.958639
C 96.544083 2.634820 -0.145836
N 96.205230 1.428452 0.326910
C 97.704460 3.412803 0.008514
C 99.025449 2.954930 -0.020880
C 100.338019 3.583063 -0.082007
C 101.252131 2.627999 -0.084591
C 100.578585 1.341125 -0.025401
N 99.266527 1.629724 0.009388
C 100.980868 -0.002978 -0.000979
C 100.148714 -1.116767 0.181302
C 100.588673 -2.148424 1.044613
C 99.590490 -3.071764 1.049234
C 98.567575 -2.591827 0.195805
N 98.934752 -1.410580 -0.314703
C 97.410665 -3.367234 0.038736
C 96.089890 -2.947756 0.022051
N 95.913499 -1.609552 0.022952
H 94.609158 -4.654418 -0.004490
H 92.815299 -2.783382 -0.026416
H 93.545649 2.269233 -1.501487
H 95.458665 4.107730 -1.491082
H 96.812908 0.791353 1.015539
H 97.649361 4.499065 0.152629
H 100.556446 4.651055 -0.120338
H 102.328446 2.774042 -0.124218
H 101.542682 -2.212836 1.602161
H 99.615909 -4.017082 1.624554
H 98.347676 -0.791123 -1.038353
H 97.471384 -4.478974 -0.075393
C 105.008065 -3.592251 0.000912
C 104.133515 -2.597346 -0.009390
C 104.804979 -1.318563 0.003800
C 104.407948 -0.002978 -0.000979
C 105.219140 1.141346 -0.155105
C 104.740114 2.193862 -0.967170
C 105.727199 3.136615 -0.958639
C 106.774471 2.634820 -0.145836
N 106.435618 1.428452 0.326910
C 107.934848 3.412803 0.008514
C 109.255837 2.954930 -0.020880
C 110.568407 3.583063 -0.082007
C 111.482519 2.627999 -0.084591
C 110.808973 1.341125 -0.025401
N 109.496914 1.629724 0.009388
C 111.211256 -0.002978 -0.000979
C 110.379102 -1.116767 0.181302
C 110.819060 -2.148424 1.044613
C 109.820878 -3.071764 1.049234
C 108.797963 -2.591827 0.195805
N 109.165140 -1.410580 -0.314703
C 107.641053 -3.367234 0.038736
C 106.320278 -2.947756 0.022051
N 106.143887 -1.609552 0.022952
H 104.839546 -4.654418 -0.004490
H 103.045687 -2.783382 -0.026416
H 103.776037 2.269233 -1.501487
H 105.689053 4.107730 -1.491082
H 107.043296 0.791353 1.015539
H 107.879748 4.499065 0.152629
H 110.786834 4.651055 -0.120338
H 112.558834 2.774042 -0.124218
H 111.773070 -2.212836 1.602161
H 109.846297 -4.017082 1.624554
H 108.578064 -0.791123 -1.038353
H 107.701771 -4.478974 -0.075393
C 115.238453 -3.592251 0.000912
C 114.363903 -2.597346 -0.009390
C 115.035367 -1.318563 0.003800
C 114.638336 -0.002978 -0.000979
C 115.449528 1.141346 -0.155105
C 114.970502 2.193862 -0.967170
C 115.957587 3.136615 -0.958639
C 117.004859 2.634820 -0.145836
N 116.666006 1.428452 0.326910
C 118.165236 3.412803 0.008514
C 119.486225 2.954930 -0.020880
C 120.798795 3.583063 -0.082007
C 121.712907 2.627999 -0.084591
C 121.039361 1.341125 -0.025401
N 119.727302 1.629724 0.009388
C 121.441644 -0.002978 -0.000979
C 120.609490 -1.116767 0.181302
C 121.049448 -2.148424 1.044613
C 120.051266 -3.071764 1.049234
C 119.028350 -2.591827 0.195805
N 119.395528 -1.410580 -0.314703
C 117.871441 -3.367234 0.038736
C 116.550666 -2.947756 0.022051
N 116.374275 -1.609552 0.022952
H 115.069933 -4.654418 -0.004490
H 113.276075 -2.783382 -0.026416
H 114.006424 2.269233 -1.501487
H 115.919441 4.107730 -1.491082
H 117.273684 0.791353 1.015539
H 118.110136 4.499065 0.152629
H 121.017222 4.651055 -0.120338
H 122.789222 2.774042 -0.124218
H 122.003458 -2.212836 1.602161
H 120.076685 -4.017082 1.624554
H 118.808451 -0.791123 -1.038353
H 117.932159 -4.478974 -0.075393
C 125.468841 -3.592251 0.000912
C 124.594291 -2.597346 -0.009390
C 125.265754 -1.318563 0.003800
C 124.868723 -0.002978 -0.000979
C 125.679916 1.141346 -0.155105
C 125.200890 2.193862 -0.967170
C 126.187975 3.136615 -0.958639
C 127.235247 2.634820 -0.145836
N 126.896394 1.428452 0.326910
C 128.395624 3.412803 0.008514
C 129.716613 2.954930 -0.020880
C 131.029183 3.583063 -0.082007
C 131.943295 2.627999 -0.084591
C 131.269749 1.341125 -0.025401
N 129.957690 1.629724 0.009388
C 131.672032 -0.002978 -0.000979
C 130.839878 -1.116767 0.181302
C 131.279836 -2.148424 1.044613
C 130.281654 -3.071764 1.049234
C 129.258738 -2.591827 0.195805
N 129.625916 -1.410580 -0.314703
C 128.101829 -3.367234 0.038736
C 126.781054 -2.947756 0.022051
N 126.604663 -1.609552 0.022952
H 125.300321 -4.654418 -0.004490
H 123.506463 -2.783382 -0.026416
H 124.236812 2.269233 -1.501487
H 126.149829 4.107730 -1.491082
H 127.504072 0.791353 1.015539
H 128.340524 4.499065 0.152629
H 131.247610 4.651055 -0.120338
H 133.019610 2.774042 -0.124218
H 132.233846 -2.212836 1.602161
H 130.307073 -4.017082 1.624554
H 129.038839 -0.791123 -1.038353
H 128.162547 -4.478974 -0.075393
