232
 xtb: 6.4.1 (bd6e46d)
Ni       36.23678650359481    0.01237995170385    0.00845936818854
C        38.73567636963711   -3.40331959912715    0.05039914396456
C        39.68722702984742   -2.44283055739140    0.03469382531466
C        38.99745959039960   -1.18793769837086    0.01784949463035
C        39.66323309069972    0.04131610893614    0.00787828311189
C        38.97489046211005    1.25795992417773    0.01139352319433
C        39.64113528032557    2.52541260908620    0.02420419544095
C        38.67184844230990    3.46803983440438    0.03832577103196
C        37.42151942813584    2.76941559580972    0.02913633556717
N        37.62247594879272    1.41496144070107    0.01457371644855
C        36.20078934457145    3.41182397977582    0.02705793665271
C        34.99390195526889    2.74421713452045   -0.00128692145130
C        33.72621389955457    3.41567229594510   -0.02375614324270
C        32.78044903530053    2.45226665116566   -0.06070249672217
C        33.47441155960868    1.19621423965738   -0.05619653609418
N        34.82592344787803    1.38899946069319   -0.02029841817344
C        32.82773794148747   -0.02268865570283   -0.07653192894337
C        33.49686702816380   -1.22933859619844   -0.05271370025095
C        32.82642324223124   -2.49812674459681   -0.05365168044274
C        33.78998098798773   -3.44363074088489   -0.01408444502458
C        35.04491525281458   -2.74857391347260    0.00657420560036
N        34.85163880524526   -1.39628381846727   -0.01623419824944
C        36.26409843573941   -3.39335295981467    0.03718106273355
C        37.47256160080809   -2.72812113623200    0.03843926899054
N        37.64809931966101   -1.36983108548694    0.02033888587345
H        38.85608543854800   -4.47031078919793    0.05275356325729
H        40.75547570800838   -2.54808766684463    0.02777008289427
H        40.70575075476239    2.64950700563059    0.01650062583105
H        38.76966643648338    4.53507256019653    0.03752070791157
H        36.18947681970500    4.48922006722970    0.02704154011823
H        33.60342496571214    4.47903330744855   -0.02047675032312
H        31.71177467640688    2.55127503161003   -0.08201539912092
H        31.74866916382389   -0.03589277335830   -0.09656123748669
H        31.76140501356785   -2.62349496439344   -0.07434025802525
H        33.68981894183847   -4.51427608316769   -0.00727683572650
H        36.27579636911273   -4.47440092921674    0.04060264265682
Ni      103.37731749485025    0.04079701795064   -0.00013729834747
C       100.88195111318934    3.40155044401995    0.60095639707352
C        99.92931845664184    2.45873304585234    0.42237565858645
C       100.61765634766799    1.22200341257460    0.20447215878281
C        99.95068343609448    0.01063812912682   -0.00061107080230
C       100.63773520371285   -1.19090128069147   -0.19568389971001
C        99.97006227283497   -2.44222810991375   -0.39340352211543
C       100.93826196683115   -3.37283646252185   -0.55053721634504
C       102.18933346757113   -2.68263532922101   -0.45038807631842
N       101.99008874616302   -1.34579926221270   -0.22967475091074
C       103.40912412010057   -3.31431772496951   -0.57656233887940
C       104.61667649667686   -2.65275422756652   -0.49201820114791
C       105.88346881750812   -3.31049138979934   -0.63731762251190
C       106.83053780221994   -2.35816798092263   -0.49597286277664
C       106.13822393986358   -1.12309144843960   -0.26212084661536
N       104.78650550254039   -1.31648286515006   -0.26453858876926
C       106.78668011905374    0.07726332120947   -0.05509551018573
C       106.11899212287760    1.26154764460896    0.18154365435686
C       106.79097333778674    2.50835206084539    0.41212775512578
C       105.82818207296033    3.43559031370103    0.60502944830977
C       104.57222867916268    2.75200341773037    0.48830411194493
N       104.76405680791383    1.42413072010028    0.23246279898404
C       103.35356554192467    3.38642098895863    0.61237016240192
C       102.14429618425757    2.73443059077684    0.48739944237838
N       101.96717912912611    1.39854746241268    0.24328773387635
H       100.76562528544321    4.45084426572109    0.78825682412811
H        98.86289629795995    2.56490409797509    0.43347804533616
H        98.90368734661426   -2.56434945447619   -0.40851524264375
H       100.83644737443939   -4.42667545907196   -0.72509079866124
H       103.41633264573683   -4.37895756035496   -0.76019909715710
H       106.00201853709423   -4.36158997692243   -0.82722393005697
H       107.89731021511342   -2.45777796991325   -0.54140467198058
H       107.86566494905799    0.08706152078859   -0.07477917958377
H       107.85780520215920    2.62704942503062    0.42024933641996
H       105.93239971058274    4.48281735519731    0.80392871296034
H       103.34593223876520    4.44651902142704    0.80872392857735
C        41.06048593704480    0.05318674289358    0.00284777829087
C        42.27800548029398    0.06104528835795   -0.00504810328050
C        43.61997962210385    0.06617604085022   -0.00975309432654
C        44.83764237328806    0.06765508521448   -0.01422717240261
C        54.49198229120064    0.04889841505718   -0.02672081811550
C        55.70965447878103    0.04566985087025   -0.02472510962913
C        57.05089820354386    0.04462556288658   -0.02265328816625
C        58.26858040044237    0.04299359548539   -0.02406665640878
C        67.91863217725793    0.04298957705500   -0.01850022958086
C        69.13619757634872    0.04415748809406   -0.01786768944322
C        70.47721885273997    0.04589506359613   -0.01575744349358
C        71.69484416769315    0.04850559877929   -0.01266661691521
C        81.34496965549947    0.04244031143984   -0.01561432070694
C        82.56263222992878    0.04011975700025   -0.01824725526204
C        83.90389341691372    0.03697607033712   -0.02069608306261
C        85.12162797816306    0.03404793407010   -0.02263158106249
C        94.77604052083495   -0.00218600785551   -0.01958375528998
C        95.99365162937323   -0.00412907194573   -0.01621168689718
C        97.33577193775213   -0.00228375561440   -0.01117820054389
C        98.55322035379298    0.00046049842437   -0.00398094639677
Ni       49.66542947678328    0.05398052530002   -0.03874500487809
C        47.18872910372185   -3.35097913267925    0.36041741293583
C        46.22987910761399   -2.40309959387353    0.25692016048122
C        46.91029815261614   -1.15121159805719    0.11483933988473
C        46.23435948365780    0.06550304581215   -0.01889471562333
C        46.91447780828868    1.27914869147911   -0.15813836166291
C        46.23893107439836    2.53343836004376   -0.29983231265416
C        47.20138898884005    3.47667033801197   -0.41295191646666
C        48.45597256184116    2.79092771464695   -0.33846491966356
N        48.26532599444779    1.44340742752918   -0.18283376240816
C        49.67192852151005    3.43689680086827   -0.41724348312347
C        50.88547714235977    2.78618781514368   -0.34408019185448
C        52.14283779634805    3.46633295226892   -0.42414558997104
C        53.10149398059643    2.51891884860192   -0.31385177684407
C        52.42075154627248    1.26785103517155   -0.16776894046964
N        51.07083398355876    1.43782722609342   -0.18802485561386
C        53.09588482963441    0.05156376926647   -0.02677060935433
C        52.41586274565217   -1.16222974515126    0.11156935712149
C        53.09205478538355   -2.41638724160009    0.25366920615324
C        52.12993209679029   -3.36069688741141    0.35892459267353
C        50.87510649679864   -2.67553287233543    0.28081754303793
N        51.06536195711328   -1.32796845023217    0.12839510789470
C        49.65926505476169   -3.32181631434309    0.35329347065943
C        48.44590091681270   -2.67037426014866    0.28145201536543
N        48.26040674088982   -1.32206420026085    0.13010803430706
H        47.07872789083339   -4.40944692464691    0.48748350313612
H        45.16351617158642   -2.51357160611790    0.27635231542553
H        45.17248994343694    2.65068010985315   -0.30576133838494
H        47.09437280832853    4.53866992897210   -0.52769400371716
H        49.67324182009555    4.51129317796340   -0.53209482582184
H        52.25323046536300    4.52852292926136   -0.53881261384566
H        54.16779298425341    2.63288027845775   -0.32092799369562
H        54.15868487822611   -2.52927941550390    0.27433333421803
H        52.23746673462789   -4.41868556479234    0.48797168836491
H        49.65758019448057   -4.39210067416942    0.48377291445890
Ni       63.09383250183998    0.03996602832159   -0.03413407814094
C        60.62317381575435   -3.36995883814441    0.37687696303961
C        59.66308279742899   -2.42397838155793    0.26747212201241
C        60.34199569754961   -1.17217769635035    0.11831500976612
C        59.66465071827785    0.04243337154219   -0.02594676685675
C        60.34202803452931    1.25690386475867   -0.17205875341562
C        59.66335150768464    2.50854102960389   -0.32286872232349
C        60.62358387644627    3.45400656610386   -0.43622388369760
C        61.87972388473879    2.77214323774999   -0.35309323272775
N        61.69220328048517    1.42472439979086   -0.19215872744578
C        63.09419780810062    3.42115098178312   -0.42785085959029
C        64.30871888229990    2.77311021056248   -0.34738904787968
C        65.56504265463393    3.45548677112211   -0.42397565809792
C        66.52500191138010    2.50986964986744   -0.30981871376779
C        65.84590554026599    1.25769537575629   -0.16488969746928
N        64.49582431347625    1.42546664745179   -0.18850209723144
C        66.52275056231515    0.04261373906162   -0.02203901120865
C        65.84548230665182   -1.17252061998232    0.11741223829129
C        66.52457513355144   -2.42467995586045    0.26267274479056
C        65.56456361319012   -3.37083809937052    0.37124711574768
C        64.30823920124836   -2.68870010726028    0.29189612128757
N        64.49546887717499   -1.34099189889471    0.13535172334509
C        63.09378420445718   -3.33725100161761    0.36824079229640
C        61.87942833525474   -2.68812529340937    0.29421525562750
N        61.69216720242434   -1.34075213824791    0.13558733763527
H        60.51307751761365   -4.42781285558214    0.50812128847657
H        58.59602673157291   -2.53480085613847    0.28764078856018
H        58.59748965146149    2.62380834560246   -0.33252063014576
H        60.51555241439555    4.51523065813174   -0.55793112742220
H        63.09500003730881    4.49417224131921   -0.54931141712178
H        65.67537879163275    4.51575757582122   -0.54388873913343
H        67.59198540484593    2.62306477490553   -0.31822936979966
H        67.59059303364995   -2.53777295743917    0.27869696200896
H        65.67298030386290   -4.43022907108420    0.49887603675454
H        63.09271209055613   -4.40798312569367    0.49980042644114
Ni       76.51966828153408    0.05036228985577    0.00909996959880
C        74.04664338603209   -3.36470653116883    0.39688824774516
C        73.08713916353642   -2.41843897419268    0.28393355020157
C        73.76692045474280   -1.16719750062011    0.13492351468883
C        73.09074100734185    0.04802849831281   -0.01031911922049
C        73.76867886785885    1.26235435456791   -0.15301515857916
C        73.09027294290483    2.51464119014127   -0.30105525503111
C        74.05075016723563    3.46002837068955   -0.41182559162336
C        75.30667077767266    2.77736567554236   -0.32985121411188
N        75.11876502361528    1.43026193060596   -0.17015239381969
C        76.52149754411991    3.42529776831217   -0.40429601823920
C        77.73540170242237    2.77561570306509   -0.32756574558803
C        78.99204835056530    3.45722167618948   -0.40715065810026
C        79.95158348679482    2.51060077824343   -0.29883553442663
C        79.27194099691782    1.25867273720950   -0.15316336509354
N        77.92190290307821    1.42804875179655   -0.17006148411982
C        79.94889512573596    0.04343082465368   -0.01235984152343
C        79.27110526247743   -1.17088530560198    0.13292351712317
C        79.94900080729467   -2.42304977600224    0.28183033040835
C        78.98819016093340   -3.36775461736237    0.39704150532864
C        77.73246500767080   -2.68492397587710    0.31686657188122
N        77.92078709464121   -1.33753354659269    0.15630207182856
C        76.51754890602933   -3.33273824269343    0.39449183636014
C        75.30337932639490   -2.68360836689484    0.31648164488032
N        75.11693599260248   -1.33578548591134    0.15716093065471
H        73.93682645316871   -4.42645043588763    0.51019010275345
H        72.02077095331229   -2.53279299822920    0.28948531788896
H        72.02365316674103    2.62626880061817   -0.32266069253953
H        73.94180844665266    4.51752247807612   -0.54961075624638
H        76.52228307783983    4.49478371898606   -0.54395050000515
H        79.10166250339323    4.51502784157124   -0.54166042020161
H        81.01811916646368    2.62150834128292   -0.31982319762767
H        81.01536418974233   -2.53869591371623    0.28707105925311
H        79.09666583275852   -4.42936094325185    0.51254425446829
H        76.51705943652667   -4.40694742037315    0.50828488588945
Ni       89.94809896558833    0.01228219227105   -0.04269252962731
C        87.46412877417239   -3.38823569471175    0.36649251681274
C        86.50747828569659   -2.43772866805241    0.26737151779670
C        87.19078687019916   -1.18840180646121    0.11738712113067
C        86.51773713489710    0.02876853029473   -0.02519148730110
C        87.19988192583359    1.24043044592074   -0.17216076087315
C        86.52641142876432    2.49476748053303   -0.32433318710094
C        87.49054802547884    3.43682688219942   -0.43268184863059
C        88.74392559564714    2.75027487859210   -0.34494444820162
N        88.55079550929509    1.40318685514967   -0.18853398541429
C        89.96117484710672    3.39522329917068   -0.40634410218451
C        91.17325523609885    2.74303263660687   -0.31930825759033
C        92.43172115379927    3.42326408157783   -0.37757963980283
C        93.38869799740804    2.47412399404569   -0.26735165488437
C        92.70595664213695    1.22172987627779   -0.14350125032240
N        91.35612123648525    1.39330214162662   -0.17433973731582
C        93.37913648800223    0.00215789555356   -0.02314859125563
C        92.69635511587826   -1.21255025448851    0.09082423653369
C        93.36946045545396   -2.47060852226656    0.21139658654339
C        92.40511547135112   -3.41329931148930    0.31104865826277
C        91.15192294564720   -2.72344679639753    0.25077083131729
N        91.34518486124897   -1.37485394787571    0.11211183033101
C        89.93483269873524   -3.36677352842113    0.33245892023807
C        88.72283001635834   -2.71163997388584    0.27666177926634
N        88.54024895441158   -1.36272092895387    0.12565541279080
H        87.35160342614550   -4.44683841485073    0.49736477870320
H        85.44088489827962   -2.54570085932255    0.29449948149704
H        85.46017145852912    2.61221110158739   -0.33806961724259
H        87.38526086163297    4.49779057559836   -0.55069807457873
H        89.96507483014379    4.46922711714191   -0.51714386725012
H        92.54380001882377    4.48581144492785   -0.47994652012714
H        94.45516706342205    2.58657401664753   -0.26404022199854
H        94.43577171378180   -2.58781724861244    0.22259988534403
H        92.51002968630209   -4.47392285055037    0.42570253927473
H        89.93139134887865   -4.43846641821596    0.45783751764059
