
  xtb     11192119583D
 xtb: 6.4.1 (bd6e46d)
278312  0     0  0            999 V2000
   49.8129    3.4315    0.0726 C   0  0  0  0  0  0  0  0  0  0  0  0
   50.7705    2.4845    0.0371 C   0  0  0  0  0  0  0  0  0  0  0  0
   50.0719    1.2130   -0.0216 C   0  0  0  0  0  0  0  0  0  0  0  0
   50.7356   -0.0297   -0.0679 C   0  0  0  0  0  0  0  0  0  0  0  0
   50.0849   -1.2735   -0.1231 C   0  0  0  0  0  0  0  0  0  0  0  0
   50.6879   -2.5587   -0.1729 C   0  0  0  0  0  0  0  0  0  0  0  0
   49.6830   -3.4816   -0.2205 C   0  0  0  0  0  0  0  0  0  0  0  0
   48.4449   -2.7797   -0.2009 C   0  0  0  0  0  0  0  0  0  0  0  0
   48.7405   -1.4515   -0.1414 N   0  0  0  0  0  0  0  0  0  0  0  0
   47.1767   -3.3405   -0.2365 C   0  0  0  0  0  0  0  0  0  0  0  0
   45.9591   -2.6745   -0.2182 C   0  0  0  0  0  0  0  0  0  0  0  0
   44.6815   -3.3714   -0.2603 C   0  0  0  0  0  0  0  0  0  0  0  0
   43.7320   -2.4183   -0.2261 C   0  0  0  0  0  0  0  0  0  0  0  0
   44.4368   -1.1472   -0.1636 C   0  0  0  0  0  0  0  0  0  0  0  0
   45.7728   -1.3396   -0.1609 N   0  0  0  0  0  0  0  0  0  0  0  0
   43.7907    0.0816   -0.1140 C   0  0  0  0  0  0  0  0  0  0  0  0
   44.4167    1.3172   -0.0544 C   0  0  0  0  0  0  0  0  0  0  0  0
   43.8122    2.6057   -0.0014 C   0  0  0  0  0  0  0  0  0  0  0  0
   44.8135    3.5299    0.0465 C   0  0  0  0  0  0  0  0  0  0  0  0
   46.0554    2.8305    0.0239 C   0  0  0  0  0  0  0  0  0  0  0  0
   45.7634    1.5047   -0.0367 N   0  0  0  0  0  0  0  0  0  0  0  0
   47.3239    3.3908    0.0564 C   0  0  0  0  0  0  0  0  0  0  0  0
   48.5419    2.7281    0.0346 C   0  0  0  0  0  0  0  0  0  0  0  0
   48.7405    1.3891   -0.0221 N   0  0  0  0  0  0  0  0  0  0  0  0
   49.9193    4.4983    0.1196 H   0  0  0  0  0  0  0  0  0  0  0  0
   51.8374    2.5967    0.0487 H   0  0  0  0  0  0  0  0  0  0  0  0
   51.7455   -2.7374   -0.1723 H   0  0  0  0  0  0  0  0  0  0  0  0
   49.7794   -4.5489   -0.2654 H   0  0  0  0  0  0  0  0  0  0  0  0
   48.0690   -0.6929   -0.1147 H   0  0  0  0  0  0  0  0  0  0  0  0
   47.1352   -4.4200   -0.2839 H   0  0  0  0  0  0  0  0  0  0  0  0
   44.5694   -4.4377   -0.3087 H   0  0  0  0  0  0  0  0  0  0  0  0
   42.6641   -2.5242   -0.2400 H   0  0  0  0  0  0  0  0  0  0  0  0
   42.7103    0.0743   -0.1227 H   0  0  0  0  0  0  0  0  0  0  0  0
   42.7547    2.7858   -0.0007 H   0  0  0  0  0  0  0  0  0  0  0  0
   44.7159    4.5973    0.0931 H   0  0  0  0  0  0  0  0  0  0  0  0
   46.4329    0.7452   -0.0658 H   0  0  0  0  0  0  0  0  0  0  0  0
   47.3670    4.4702    0.1041 H   0  0  0  0  0  0  0  0  0  0  0  0
  126.2210   -3.4174    0.3528 C   0  0  0  0  0  0  0  0  0  0  0  0
  125.2601   -2.4755    0.2835 C   0  0  0  0  0  0  0  0  0  0  0  0
  125.9539   -1.2078    0.1428 C   0  0  0  0  0  0  0  0  0  0  0  0
  125.2859    0.0288    0.0364 C   0  0  0  0  0  0  0  0  0  0  0  0
  125.9318    1.2686   -0.1028 C   0  0  0  0  0  0  0  0  0  0  0  0
  125.3239    2.5474   -0.2165 C   0  0  0  0  0  0  0  0  0  0  0  0
  126.3248    3.4685   -0.3328 C   0  0  0  0  0  0  0  0  0  0  0  0
  127.5654    2.7719   -0.2923 C   0  0  0  0  0  0  0  0  0  0  0  0
  127.2751    1.4485   -0.1527 N   0  0  0  0  0  0  0  0  0  0  0  0
  128.8310    3.3329   -0.3783 C   0  0  0  0  0  0  0  0  0  0  0  0
  130.0509    2.6718   -0.3397 C   0  0  0  0  0  0  0  0  0  0  0  0
  131.3256    3.3683   -0.4384 C   0  0  0  0  0  0  0  0  0  0  0  0
  132.2784    2.4207   -0.3640 C   0  0  0  0  0  0  0  0  0  0  0  0
  131.5785    1.1535   -0.2210 C   0  0  0  0  0  0  0  0  0  0  0  0
  130.2420    1.3427   -0.2103 N   0  0  0  0  0  0  0  0  0  0  0  0
  132.2290   -0.0693   -0.1134 C   0  0  0  0  0  0  0  0  0  0  0  0
  131.6078   -1.3013    0.0222 C   0  0  0  0  0  0  0  0  0  0  0  0
  132.2171   -2.5837    0.1344 C   0  0  0  0  0  0  0  0  0  0  0  0
  131.2195   -3.5064    0.2468 C   0  0  0  0  0  0  0  0  0  0  0  0
  129.9753   -2.8122    0.2065 C   0  0  0  0  0  0  0  0  0  0  0  0
  130.2621   -1.4908    0.0707 N   0  0  0  0  0  0  0  0  0  0  0  0
  128.7093   -3.3727    0.2900 C   0  0  0  0  0  0  0  0  0  0  0  0
  127.4890   -2.7147    0.2541 C   0  0  0  0  0  0  0  0  0  0  0  0
  127.2856   -1.3811    0.1283 N   0  0  0  0  0  0  0  0  0  0  0  0
  126.1185   -4.4803    0.4591 H   0  0  0  0  0  0  0  0  0  0  0  0
  124.1939   -2.5889    0.3197 H   0  0  0  0  0  0  0  0  0  0  0  0
  124.2658    2.7233   -0.2091 H   0  0  0  0  0  0  0  0  0  0  0  0
  126.2242    4.5313   -0.4371 H   0  0  0  0  0  0  0  0  0  0  0  0
  127.9497    0.6946   -0.0931 H   0  0  0  0  0  0  0  0  0  0  0  0
  128.8685    4.4080   -0.4874 H   0  0  0  0  0  0  0  0  0  0  0  0
  131.4337    4.4305   -0.5479 H   0  0  0  0  0  0  0  0  0  0  0  0
  133.3457    2.5282   -0.3985 H   0  0  0  0  0  0  0  0  0  0  0  0
  133.3091   -0.0600   -0.1380 H   0  0  0  0  0  0  0  0  0  0  0  0
  133.2750   -2.7610    0.1284 H   0  0  0  0  0  0  0  0  0  0  0  0
  131.3214   -4.5695    0.3485 H   0  0  0  0  0  0  0  0  0  0  0  0
  129.5896   -0.7356    0.0113 H   0  0  0  0  0  0  0  0  0  0  0  0
  128.6703   -4.4482    0.3960 H   0  0  0  0  0  0  0  0  0  0  0  0
   52.1319   -0.0298   -0.0587 C   0  0  0  0  0  0  0  0  0  0  0  0
   53.3506   -0.0146   -0.0482 C   0  0  0  0  0  0  0  0  0  0  0  0
   54.6912    0.0000   -0.0352 C   0  0  0  0  0  0  0  0  0  0  0  0
   55.9100    0.0211   -0.0244 C   0  0  0  0  0  0  0  0  0  0  0  0
   65.7313    0.0010    0.0342 C   0  0  0  0  0  0  0  0  0  0  0  0
   66.9506    0.0081    0.0331 C   0  0  0  0  0  0  0  0  0  0  0  0
   68.2906    0.0182    0.0324 C   0  0  0  0  0  0  0  0  0  0  0  0
   69.5099    0.0244    0.0299 C   0  0  0  0  0  0  0  0  0  0  0  0
   79.3274   -0.0165    0.0531 C   0  0  0  0  0  0  0  0  0  0  0  0
   80.5467   -0.0028    0.0544 C   0  0  0  0  0  0  0  0  0  0  0  0
   81.8865    0.0134    0.0561 C   0  0  0  0  0  0  0  0  0  0  0  0
   83.1057    0.0281    0.0507 C   0  0  0  0  0  0  0  0  0  0  0  0
   92.9202   -0.0107   -0.0747 C   0  0  0  0  0  0  0  0  0  0  0  0
   94.1394   -0.0012   -0.0922 C   0  0  0  0  0  0  0  0  0  0  0  0
   95.4792    0.0109   -0.1065 C   0  0  0  0  0  0  0  0  0  0  0  0
   96.6984    0.0189   -0.1164 C   0  0  0  0  0  0  0  0  0  0  0  0
  106.5145    0.0078    0.0287 C   0  0  0  0  0  0  0  0  0  0  0  0
  107.7331    0.0277    0.0639 C   0  0  0  0  0  0  0  0  0  0  0  0
  109.0726    0.0444    0.0975 C   0  0  0  0  0  0  0  0  0  0  0  0
  110.2916    0.0577    0.1253 C   0  0  0  0  0  0  0  0  0  0  0  0
  120.1125   -0.0055    0.1513 C   0  0  0  0  0  0  0  0  0  0  0  0
  121.3312    0.0068    0.1271 C   0  0  0  0  0  0  0  0  0  0  0  0
  122.6716    0.0169    0.0994 C   0  0  0  0  0  0  0  0  0  0  0  0
  123.8900    0.0277    0.0693 C   0  0  0  0  0  0  0  0  0  0  0  0
   58.2903   -3.4005    0.2834 C   0  0  0  0  0  0  0  0  0  0  0  0
   57.3139   -2.4760    0.1957 C   0  0  0  0  0  0  0  0  0  0  0  0
   57.9872   -1.1946    0.0934 C   0  0  0  0  0  0  0  0  0  0  0  0
   57.3049    0.0344   -0.0122 C   0  0  0  0  0  0  0  0  0  0  0  0
   57.9510    1.2790   -0.1048 C   0  0  0  0  0  0  0  0  0  0  0  0
   57.3532    2.5617   -0.2102 C   0  0  0  0  0  0  0  0  0  0  0  0
   58.3637    3.4784   -0.2769 C   0  0  0  0  0  0  0  0  0  0  0  0
   59.5982    2.7738   -0.2142 C   0  0  0  0  0  0  0  0  0  0  0  0
   59.2964    1.4504   -0.1100 N   0  0  0  0  0  0  0  0  0  0  0  0
   60.8660    3.3384   -0.2554 C   0  0  0  0  0  0  0  0  0  0  0  0
   62.0944    2.7001   -0.2007 C   0  0  0  0  0  0  0  0  0  0  0  0
   63.3517    3.4264   -0.2594 C   0  0  0  0  0  0  0  0  0  0  0  0
   64.3280    2.5010   -0.1811 C   0  0  0  0  0  0  0  0  0  0  0  0
   63.6545    1.2200   -0.0749 C   0  0  0  0  0  0  0  0  0  0  0  0
   62.3199    1.3683   -0.0897 N   0  0  0  0  0  0  0  0  0  0  0  0
   64.3368   -0.0092    0.0314 C   0  0  0  0  0  0  0  0  0  0  0  0
   63.6904   -1.2529    0.1363 C   0  0  0  0  0  0  0  0  0  0  0  0
   64.2883   -2.5350    0.2490 C   0  0  0  0  0  0  0  0  0  0  0  0
   63.2778   -3.4511    0.3230 C   0  0  0  0  0  0  0  0  0  0  0  0
   62.0433   -2.7468    0.2566 C   0  0  0  0  0  0  0  0  0  0  0  0
   62.3452   -1.4238    0.1450 N   0  0  0  0  0  0  0  0  0  0  0  0
   60.7757   -3.3113    0.2966 C   0  0  0  0  0  0  0  0  0  0  0  0
   59.5474   -2.6734    0.2325 C   0  0  0  0  0  0  0  0  0  0  0  0
   59.3220   -1.3422    0.1175 N   0  0  0  0  0  0  0  0  0  0  0  0
   58.2048   -4.4664    0.3735 H   0  0  0  0  0  0  0  0  0  0  0  0
   56.2494   -2.6092    0.1980 H   0  0  0  0  0  0  0  0  0  0  0  0
   56.2965    2.7442   -0.2312 H   0  0  0  0  0  0  0  0  0  0  0  0
   58.2725    4.5438   -0.3620 H   0  0  0  0  0  0  0  0  0  0  0  0
   59.9514    0.6787   -0.0451 H   0  0  0  0  0  0  0  0  0  0  0  0
   60.8952    4.4162   -0.3428 H   0  0  0  0  0  0  0  0  0  0  0  0
   63.4373    4.4924   -0.3483 H   0  0  0  0  0  0  0  0  0  0  0  0
   65.3926    2.6333   -0.1910 H   0  0  0  0  0  0  0  0  0  0  0  0
   65.3449   -2.7176    0.2693 H   0  0  0  0  0  0  0  0  0  0  0  0
   63.3690   -4.5159    0.4146 H   0  0  0  0  0  0  0  0  0  0  0  0
   61.6900   -0.6527    0.0762 H   0  0  0  0  0  0  0  0  0  0  0  0
   60.7462   -4.3887    0.3886 H   0  0  0  0  0  0  0  0  0  0  0  0
   71.8816   -3.3980    0.4012 C   0  0  0  0  0  0  0  0  0  0  0  0
   70.9075   -2.4725    0.3000 C   0  0  0  0  0  0  0  0  0  0  0  0
   71.5841   -1.1961    0.1625 C   0  0  0  0  0  0  0  0  0  0  0  0
   70.9043    0.0319    0.0290 C   0  0  0  0  0  0  0  0  0  0  0  0
   71.5528    1.2717   -0.1066 C   0  0  0  0  0  0  0  0  0  0  0  0
   70.9564    2.5515   -0.2485 C   0  0  0  0  0  0  0  0  0  0  0  0
   71.9680    3.4640   -0.3490 C   0  0  0  0  0  0  0  0  0  0  0  0
   73.2014    2.7595   -0.2703 C   0  0  0  0  0  0  0  0  0  0  0  0
   72.8982    1.4403   -0.1245 N   0  0  0  0  0  0  0  0  0  0  0  0
   74.4702    3.3202   -0.3311 C   0  0  0  0  0  0  0  0  0  0  0  0
   75.6969    2.6807   -0.2578 C   0  0  0  0  0  0  0  0  0  0  0  0
   76.9559    3.4022   -0.3347 C   0  0  0  0  0  0  0  0  0  0  0  0
   77.9299    2.4771   -0.2290 C   0  0  0  0  0  0  0  0  0  0  0  0
   77.2532    1.2009   -0.0893 C   0  0  0  0  0  0  0  0  0  0  0  0
   75.9190    1.3519   -0.1098 N   0  0  0  0  0  0  0  0  0  0  0  0
   77.9330   -0.0265    0.0486 C   0  0  0  0  0  0  0  0  0  0  0  0
   77.2849   -1.2666    0.1823 C   0  0  0  0  0  0  0  0  0  0  0  0
   77.8813   -2.5465    0.3238 C   0  0  0  0  0  0  0  0  0  0  0  0
   76.8698   -3.4595    0.4197 C   0  0  0  0  0  0  0  0  0  0  0  0
   75.6362   -2.7554    0.3390 C   0  0  0  0  0  0  0  0  0  0  0  0
   75.9395   -1.4357    0.1961 N   0  0  0  0  0  0  0  0  0  0  0  0
   74.3674   -3.3161    0.3964 C   0  0  0  0  0  0  0  0  0  0  0  0
   73.1406   -2.6764    0.3246 C   0  0  0  0  0  0  0  0  0  0  0  0
   72.9184   -1.3473    0.1802 N   0  0  0  0  0  0  0  0  0  0  0  0
   71.7936   -4.4613    0.5162 H   0  0  0  0  0  0  0  0  0  0  0  0
   69.8427   -2.6020    0.3130 H   0  0  0  0  0  0  0  0  0  0  0  0
   69.8999    2.7351   -0.2694 H   0  0  0  0  0  0  0  0  0  0  0  0
   71.8779    4.5263   -0.4666 H   0  0  0  0  0  0  0  0  0  0  0  0
   73.5532    0.6707   -0.0395 H   0  0  0  0  0  0  0  0  0  0  0  0
   74.5016    4.3948   -0.4503 H   0  0  0  0  0  0  0  0  0  0  0  0
   77.0440    4.4651   -0.4526 H   0  0  0  0  0  0  0  0  0  0  0  0
   78.9947    2.6068   -0.2405 H   0  0  0  0  0  0  0  0  0  0  0  0
   78.9378   -2.7298    0.3473 H   0  0  0  0  0  0  0  0  0  0  0  0
   76.9600   -4.5220    0.5357 H   0  0  0  0  0  0  0  0  0  0  0  0
   75.2845   -0.6662    0.1104 H   0  0  0  0  0  0  0  0  0  0  0  0
   74.3358   -4.3911    0.5130 H   0  0  0  0  0  0  0  0  0  0  0  0
   85.4834   -3.3843    0.4552 C   0  0  0  0  0  0  0  0  0  0  0  0
   84.5079   -2.4604    0.3532 C   0  0  0  0  0  0  0  0  0  0  0  0
   85.1823   -1.1864    0.1858 C   0  0  0  0  0  0  0  0  0  0  0  0
   84.5001    0.0391    0.0423 C   0  0  0  0  0  0  0  0  0  0  0  0
   85.1454    1.2783   -0.1123 C   0  0  0  0  0  0  0  0  0  0  0  0
   84.5459    2.5564   -0.2561 C   0  0  0  0  0  0  0  0  0  0  0  0
   85.5550    3.4694   -0.3748 C   0  0  0  0  0  0  0  0  0  0  0  0
   86.7902    2.7668   -0.3067 C   0  0  0  0  0  0  0  0  0  0  0  0
   86.4903    1.4483   -0.1477 N   0  0  0  0  0  0  0  0  0  0  0  0
   88.0577    3.3275   -0.3895 C   0  0  0  0  0  0  0  0  0  0  0  0
   89.2855    2.6882   -0.3327 C   0  0  0  0  0  0  0  0  0  0  0  0
   90.5431    3.4088   -0.4367 C   0  0  0  0  0  0  0  0  0  0  0  0
   91.5186    2.4838   -0.3446 C   0  0  0  0  0  0  0  0  0  0  0  0
   90.8442    1.2088   -0.1849 C   0  0  0  0  0  0  0  0  0  0  0  0
   89.5099    1.3602   -0.1812 N   0  0  0  0  0  0  0  0  0  0  0  0
   91.5260   -0.0180   -0.0514 C   0  0  0  0  0  0  0  0  0  0  0  0
   90.8804   -1.2566    0.1072 C   0  0  0  0  0  0  0  0  0  0  0  0
   91.4801   -2.5347    0.2506 C   0  0  0  0  0  0  0  0  0  0  0  0
   90.4711   -3.4467    0.3786 C   0  0  0  0  0  0  0  0  0  0  0  0
   89.2360   -2.7435    0.3155 C   0  0  0  0  0  0  0  0  0  0  0  0
   89.5357   -1.4256    0.1508 N   0  0  0  0  0  0  0  0  0  0  0  0
   87.9688   -3.3034    0.4058 C   0  0  0  0  0  0  0  0  0  0  0  0
   86.7410   -2.6643    0.3477 C   0  0  0  0  0  0  0  0  0  0  0  0
   86.5166   -1.3373    0.1869 N   0  0  0  0  0  0  0  0  0  0  0  0
   85.3972   -4.4456    0.5888 H   0  0  0  0  0  0  0  0  0  0  0  0
   83.4434   -2.5896    0.3844 H   0  0  0  0  0  0  0  0  0  0  0  0
   83.4890    2.7388   -0.2653 H   0  0  0  0  0  0  0  0  0  0  0  0
   85.4622    4.5308   -0.4983 H   0  0  0  0  0  0  0  0  0  0  0  0
   87.1477    0.6806   -0.0648 H   0  0  0  0  0  0  0  0  0  0  0  0
   88.0872    4.4014   -0.5158 H   0  0  0  0  0  0  0  0  0  0  0  0
   90.6293    4.4711   -0.5617 H   0  0  0  0  0  0  0  0  0  0  0  0
   92.5831    2.6130   -0.3767 H   0  0  0  0  0  0  0  0  0  0  0  0
   92.5368   -2.7177    0.2541 H   0  0  0  0  0  0  0  0  0  0  0  0
   90.5640   -4.5078    0.5049 H   0  0  0  0  0  0  0  0  0  0  0  0
   88.8782   -0.6578    0.0703 H   0  0  0  0  0  0  0  0  0  0  0  0
   87.9394   -4.3767    0.5374 H   0  0  0  0  0  0  0  0  0  0  0  0
   99.0756   -3.3968    0.2810 C   0  0  0  0  0  0  0  0  0  0  0  0
   98.1000   -2.4742    0.1679 C   0  0  0  0  0  0  0  0  0  0  0  0
   98.7744   -1.1969    0.0284 C   0  0  0  0  0  0  0  0  0  0  0  0
   98.0928    0.0285   -0.1185 C   0  0  0  0  0  0  0  0  0  0  0  0
   98.7392    1.2679   -0.2670 C   0  0  0  0  0  0  0  0  0  0  0  0
   98.1407    2.5440   -0.4317 C   0  0  0  0  0  0  0  0  0  0  0  0
   99.1508    3.4572   -0.5405 C   0  0  0  0  0  0  0  0  0  0  0  0
  100.3854    2.7572   -0.4426 C   0  0  0  0  0  0  0  0  0  0  0  0
  100.0843    1.4394   -0.2790 N   0  0  0  0  0  0  0  0  0  0  0  0
  101.6531    3.3202   -0.4995 C   0  0  0  0  0  0  0  0  0  0  0  0
  102.8807    2.6861   -0.3981 C   0  0  0  0  0  0  0  0  0  0  0  0
  104.1384    3.4109   -0.4655 C   0  0  0  0  0  0  0  0  0  0  0  0
  105.1136    2.4917   -0.3252 C   0  0  0  0  0  0  0  0  0  0  0  0
  104.4390    1.2154   -0.1763 C   0  0  0  0  0  0  0  0  0  0  0  0
  103.1049    1.3609   -0.2238 N   0  0  0  0  0  0  0  0  0  0  0  0
  105.1205   -0.0072   -0.0075 C   0  0  0  0  0  0  0  0  0  0  0  0
  104.4744   -1.2485    0.1253 C   0  0  0  0  0  0  0  0  0  0  0  0
  105.0728   -2.5248    0.2883 C   0  0  0  0  0  0  0  0  0  0  0  0
  104.0631   -3.4412    0.3712 C   0  0  0  0  0  0  0  0  0  0  0  0
  102.8287   -2.7424    0.2621 C   0  0  0  0  0  0  0  0  0  0  0  0
  103.1296   -1.4228    0.1146 N   0  0  0  0  0  0  0  0  0  0  0  0
  101.5611   -3.3075    0.3030 C   0  0  0  0  0  0  0  0  0  0  0  0
  100.3333   -2.6722    0.2118 C   0  0  0  0  0  0  0  0  0  0  0  0
  100.1089   -1.3445    0.0574 N   0  0  0  0  0  0  0  0  0  0  0  0
   98.9894   -4.4597    0.4008 H   0  0  0  0  0  0  0  0  0  0  0  0
   97.0354   -2.6064    0.1726 H   0  0  0  0  0  0  0  0  0  0  0  0
   97.0840    2.7247   -0.4618 H   0  0  0  0  0  0  0  0  0  0  0  0
   99.0589    4.5174   -0.6752 H   0  0  0  0  0  0  0  0  0  0  0  0
  100.7405    0.6729   -0.1782 H   0  0  0  0  0  0  0  0  0  0  0  0
  101.6831    4.3928   -0.6366 H   0  0  0  0  0  0  0  0  0  0  0  0
  104.2248    4.4719   -0.6006 H   0  0  0  0  0  0  0  0  0  0  0  0
  106.1780    2.6253   -0.3195 H   0  0  0  0  0  0  0  0  0  0  0  0
  106.1293   -2.7038    0.3335 H   0  0  0  0  0  0  0  0  0  0  0  0
  104.1551   -4.5024    0.4969 H   0  0  0  0  0  0  0  0  0  0  0  0
  102.4734   -0.6567    0.0104 H   0  0  0  0  0  0  0  0  0  0  0  0
  101.5314   -4.3817    0.4260 H   0  0  0  0  0  0  0  0  0  0  0  0
  112.6561   -3.3604    0.5700 C   0  0  0  0  0  0  0  0  0  0  0  0
  111.6838   -2.4352    0.4497 C   0  0  0  0  0  0  0  0  0  0  0  0
  112.3628   -1.1612    0.3021 C   0  0  0  0  0  0  0  0  0  0  0  0
  111.6858    0.0660    0.1493 C   0  0  0  0  0  0  0  0  0  0  0  0
  112.3375    1.3043    0.0165 C   0  0  0  0  0  0  0  0  0  0  0  0
  111.7453    2.5853   -0.1320 C   0  0  0  0  0  0  0  0  0  0  0  0
  112.7598    3.4955   -0.2232 C   0  0  0  0  0  0  0  0  0  0  0  0
  113.9911    2.7883   -0.1337 C   0  0  0  0  0  0  0  0  0  0  0  0
  113.6834    1.4699    0.0110 N   0  0  0  0  0  0  0  0  0  0  0  0
  115.2613    3.3458   -0.1891 C   0  0  0  0  0  0  0  0  0  0  0  0
  116.4868    2.7033   -0.1176 C   0  0  0  0  0  0  0  0  0  0  0  0
  117.7471    3.4219   -0.1999 C   0  0  0  0  0  0  0  0  0  0  0  0
  118.7194    2.4939   -0.1042 C   0  0  0  0  0  0  0  0  0  0  0  0
  118.0405    1.2193    0.0379 C   0  0  0  0  0  0  0  0  0  0  0  0
  116.7063    1.3740    0.0271 N   0  0  0  0  0  0  0  0  0  0  0  0
  118.7176   -0.0101    0.1697 C   0  0  0  0  0  0  0  0  0  0  0  0
  118.0661   -1.2464    0.3187 C   0  0  0  0  0  0  0  0  0  0  0  0
  118.6582   -2.5274    0.4680 C   0  0  0  0  0  0  0  0  0  0  0  0
  117.6436   -3.4348    0.5827 C   0  0  0  0  0  0  0  0  0  0  0  0
  116.4123   -2.7263    0.5041 C   0  0  0  0  0  0  0  0  0  0  0  0
  116.7200   -1.4096    0.3457 N   0  0  0  0  0  0  0  0  0  0  0  0
  115.1419   -3.2825    0.5724 C   0  0  0  0  0  0  0  0  0  0  0  0
  113.9165   -2.6413    0.4921 C   0  0  0  0  0  0  0  0  0  0  0  0
  113.6967   -1.3136    0.3314 N   0  0  0  0  0  0  0  0  0  0  0  0
  112.5659   -4.4220    0.6975 H   0  0  0  0  0  0  0  0  0  0  0  0
  110.6187   -2.5634    0.4569 H   0  0  0  0  0  0  0  0  0  0  0  0
  110.6895    2.7713   -0.1626 H   0  0  0  0  0  0  0  0  0  0  0  0
  112.6732    4.5580   -0.3422 H   0  0  0  0  0  0  0  0  0  0  0  0
  114.3351    0.6983    0.1030 H   0  0  0  0  0  0  0  0  0  0  0  0
  115.2956    4.4205   -0.3073 H   0  0  0  0  0  0  0  0  0  0  0  0
  117.8372    4.4849   -0.3155 H   0  0  0  0  0  0  0  0  0  0  0  0
  119.7845    2.6209   -0.1225 H   0  0  0  0  0  0  0  0  0  0  0  0
  119.7140   -2.7151    0.4847 H   0  0  0  0  0  0  0  0  0  0  0  0
  117.7301   -4.4965    0.7094 H   0  0  0  0  0  0  0  0  0  0  0  0
  116.0682   -0.6376    0.2575 H   0  0  0  0  0  0  0  0  0  0  0  0
  115.1078   -4.3560    0.7013 H   0  0  0  0  0  0  0  0  0  0  0  0
  1  2  2  0  0  0  0
  2  3  1  0  0  0  0
  3  4  4  0  0  0  0
  4  5  4  0  0  0  0
  5  6  4  0  0  0  0
  6  7  2  0  0  0  0
  7  8  4  0  0  0  0
  5  9  4  0  0  0  0
  8  9  4  0  0  0  0
  8 10  4  0  0  0  0
 10 11  4  0  0  0  0
 11 12  1  0  0  0  0
 12 13  2  0  0  0  0
 13 14  1  0  0  0  0
 11 15  4  0  0  0  0
 14 15  4  0  0  0  0
 14 16  4  0  0  0  0
 16 17  4  0  0  0  0
 17 18  4  0  0  0  0
 18 19  2  0  0  0  0
 19 20  4  0  0  0  0
 17 21  4  0  0  0  0
 20 21  4  0  0  0  0
 20 22  4  0  0  0  0
  1 23  1  0  0  0  0
 22 23  4  0  0  0  0
  3 24  4  0  0  0  0
 23 24  4  0  0  0  0
  1 25  1  0  0  0  0
  2 26  1  0  0  0  0
  6 27  1  0  0  0  0
  7 28  1  0  0  0  0
  9 29  1  0  0  0  0
 10 30  1  0  0  0  0
 12 31  1  0  0  0  0
 13 32  1  0  0  0  0
 16 33  1  0  0  0  0
 18 34  1  0  0  0  0
 19 35  1  0  0  0  0
 21 36  1  0  0  0  0
 22 37  1  0  0  0  0
 38 39  2  0  0  0  0
 39 40  1  0  0  0  0
 40 41  4  0  0  0  0
 41 42  4  0  0  0  0
 42 43  4  0  0  0  0
 43 44  2  0  0  0  0
 44 45  4  0  0  0  0
 42 46  4  0  0  0  0
 45 46  4  0  0  0  0
 45 47  4  0  0  0  0
 47 48  4  0  0  0  0
 48 49  1  0  0  0  0
 49 50  2  0  0  0  0
 50 51  1  0  0  0  0
 48 52  4  0  0  0  0
 51 52  4  0  0  0  0
 51 53  4  0  0  0  0
 53 54  4  0  0  0  0
 54 55  4  0  0  0  0
 55 56  2  0  0  0  0
 56 57  4  0  0  0  0
 54 58  4  0  0  0  0
 57 58  4  0  0  0  0
 57 59  4  0  0  0  0
 38 60  1  0  0  0  0
 59 60  4  0  0  0  0
 40 61  4  0  0  0  0
 60 61  4  0  0  0  0
 38 62  1  0  0  0  0
 39 63  1  0  0  0  0
 43 64  1  0  0  0  0
 44 65  1  0  0  0  0
 46 66  1  0  0  0  0
 47 67  1  0  0  0  0
 49 68  1  0  0  0  0
 50 69  1  0  0  0  0
 53 70  1  0  0  0  0
 55 71  1  0  0  0  0
 56 72  1  0  0  0  0
 58 73  1  0  0  0  0
 59 74  1  0  0  0  0
  4 75  1  0  0  0  0
 75 76  3  0  0  0  0
 76 77  4  0  0  0  0
 77 78  3  0  0  0  0
 79 80  3  0  0  0  0
 80 81  4  0  0  0  0
 81 82  3  0  0  0  0
 83 84  3  0  0  0  0
 84 85  4  0  0  0  0
 85 86  3  0  0  0  0
 87 88  3  0  0  0  0
 88 89  4  0  0  0  0
 89 90  3  0  0  0  0
 91 92  3  0  0  0  0
 92 93  4  0  0  0  0
 93 94  3  0  0  0  0
 95 96  3  0  0  0  0
 96 97  4  0  0  0  0
 41 98  1  0  0  0  0
 97 98  3  0  0  0  0
 99100  2  0  0  0  0
100101  1  0  0  0  0
 78102  1  0  0  0  0
101102  4  0  0  0  0
102103  4  0  0  0  0
103104  4  0  0  0  0
104105  2  0  0  0  0
105106  4  0  0  0  0
103107  4  0  0  0  0
106107  4  0  0  0  0
106108  4  0  0  0  0
108109  4  0  0  0  0
109110  1  0  0  0  0
110111  2  0  0  0  0
111112  1  0  0  0  0
109113  4  0  0  0  0
112113  4  0  0  0  0
 79114  1  0  0  0  0
112114  4  0  0  0  0
114115  4  0  0  0  0
115116  4  0  0  0  0
116117  2  0  0  0  0
117118  4  0  0  0  0
115119  4  0  0  0  0
118119  4  0  0  0  0
118120  4  0  0  0  0
 99121  1  0  0  0  0
120121  4  0  0  0  0
101122  4  0  0  0  0
121122  4  0  0  0  0
 99123  1  0  0  0  0
100124  1  0  0  0  0
104125  1  0  0  0  0
105126  1  0  0  0  0
107127  1  0  0  0  0
108128  1  0  0  0  0
110129  1  0  0  0  0
111130  1  0  0  0  0
116131  1  0  0  0  0
117132  1  0  0  0  0
119133  1  0  0  0  0
120134  1  0  0  0  0
135136  2  0  0  0  0
136137  1  0  0  0  0
 82138  1  0  0  0  0
137138  4  0  0  0  0
138139  4  0  0  0  0
139140  4  0  0  0  0
140141  2  0  0  0  0
141142  4  0  0  0  0
139143  4  0  0  0  0
142143  4  0  0  0  0
142144  4  0  0  0  0
144145  4  0  0  0  0
145146  1  0  0  0  0
146147  2  0  0  0  0
147148  1  0  0  0  0
145149  4  0  0  0  0
148149  4  0  0  0  0
 83150  1  0  0  0  0
148150  4  0  0  0  0
150151  4  0  0  0  0
151152  4  0  0  0  0
152153  2  0  0  0  0
153154  4  0  0  0  0
151155  4  0  0  0  0
154155  4  0  0  0  0
154156  4  0  0  0  0
135157  1  0  0  0  0
156157  4  0  0  0  0
137158  4  0  0  0  0
157158  4  0  0  0  0
135159  1  0  0  0  0
136160  1  0  0  0  0
140161  1  0  0  0  0
141162  1  0  0  0  0
143163  1  0  0  0  0
144164  1  0  0  0  0
146165  1  0  0  0  0
147166  1  0  0  0  0
152167  1  0  0  0  0
153168  1  0  0  0  0
155169  1  0  0  0  0
156170  1  0  0  0  0
171172  2  0  0  0  0
172173  1  0  0  0  0
 86174  1  0  0  0  0
173174  4  0  0  0  0
174175  4  0  0  0  0
175176  4  0  0  0  0
176177  2  0  0  0  0
177178  4  0  0  0  0
175179  4  0  0  0  0
178179  4  0  0  0  0
178180  4  0  0  0  0
180181  4  0  0  0  0
181182  1  0  0  0  0
182183  2  0  0  0  0
183184  1  0  0  0  0
181185  4  0  0  0  0
184185  4  0  0  0  0
 87186  1  0  0  0  0
184186  4  0  0  0  0
186187  4  0  0  0  0
187188  4  0  0  0  0
188189  2  0  0  0  0
189190  4  0  0  0  0
187191  4  0  0  0  0
190191  4  0  0  0  0
190192  4  0  0  0  0
171193  1  0  0  0  0
192193  4  0  0  0  0
173194  4  0  0  0  0
193194  4  0  0  0  0
171195  1  0  0  0  0
172196  1  0  0  0  0
176197  1  0  0  0  0
177198  1  0  0  0  0
179199  1  0  0  0  0
180200  1  0  0  0  0
182201  1  0  0  0  0
183202  1  0  0  0  0
188203  1  0  0  0  0
189204  1  0  0  0  0
191205  1  0  0  0  0
192206  1  0  0  0  0
207208  2  0  0  0  0
208209  1  0  0  0  0
 90210  1  0  0  0  0
209210  4  0  0  0  0
210211  4  0  0  0  0
211212  4  0  0  0  0
212213  2  0  0  0  0
213214  4  0  0  0  0
211215  4  0  0  0  0
214215  4  0  0  0  0
214216  4  0  0  0  0
216217  4  0  0  0  0
217218  1  0  0  0  0
218219  2  0  0  0  0
219220  1  0  0  0  0
217221  4  0  0  0  0
220221  4  0  0  0  0
 91222  1  0  0  0  0
220222  4  0  0  0  0
222223  4  0  0  0  0
223224  4  0  0  0  0
224225  2  0  0  0  0
225226  4  0  0  0  0
223227  4  0  0  0  0
226227  4  0  0  0  0
226228  4  0  0  0  0
207229  1  0  0  0  0
228229  4  0  0  0  0
209230  4  0  0  0  0
229230  4  0  0  0  0
207231  1  0  0  0  0
208232  1  0  0  0  0
212233  1  0  0  0  0
213234  1  0  0  0  0
215235  1  0  0  0  0
216236  1  0  0  0  0
218237  1  0  0  0  0
219238  1  0  0  0  0
224239  1  0  0  0  0
225240  1  0  0  0  0
227241  1  0  0  0  0
228242  1  0  0  0  0
243244  2  0  0  0  0
244245  1  0  0  0  0
 94246  1  0  0  0  0
245246  4  0  0  0  0
246247  4  0  0  0  0
247248  4  0  0  0  0
248249  2  0  0  0  0
249250  4  0  0  0  0
247251  4  0  0  0  0
250251  4  0  0  0  0
250252  4  0  0  0  0
252253  4  0  0  0  0
253254  1  0  0  0  0
254255  2  0  0  0  0
255256  1  0  0  0  0
253257  4  0  0  0  0
256257  4  0  0  0  0
 95258  1  0  0  0  0
256258  4  0  0  0  0
258259  4  0  0  0  0
259260  4  0  0  0  0
260261  2  0  0  0  0
261262  4  0  0  0  0
259263  4  0  0  0  0
262263  4  0  0  0  0
262264  4  0  0  0  0
243265  1  0  0  0  0
264265  4  0  0  0  0
245266  4  0  0  0  0
265266  4  0  0  0  0
243267  1  0  0  0  0
244268  1  0  0  0  0
248269  1  0  0  0  0
249270  1  0  0  0  0
251271  1  0  0  0  0
252272  1  0  0  0  0
254273  1  0  0  0  0
255274  1  0  0  0  0
260275  1  0  0  0  0
261276  1  0  0  0  0
263277  1  0  0  0  0
264278  1  0  0  0  0
M  END
