
  xtb     11192114113D
 xtb: 6.4.1 (bd6e46d)
160191  0     0  0            999 V2000
   17.6015   -0.0046   -0.0101 Fe  0  0  0  0  0  0  0  0  0  0  0  0
   20.1032   -3.3916    0.0388 C   0  0  0  0  0  0  0  0  0  0  0  0
   21.0948   -2.4700    0.0389 C   0  0  0  0  0  0  0  0  0  0  0  0
   20.4537   -1.1911    0.0181 C   0  0  0  0  0  0  0  0  0  0  0  0
   21.1295    0.0334    0.0050 C   0  0  0  0  0  0  0  0  0  0  0  0
   20.4277    1.2431   -0.0117 C   0  0  0  0  0  0  0  0  0  0  0  0
   21.0413    2.5355   -0.0240 C   0  0  0  0  0  0  0  0  0  0  0  0
   20.0300    3.4356   -0.0281 C   0  0  0  0  0  0  0  0  0  0  0  0
   18.8063    2.6870   -0.0188 C   0  0  0  0  0  0  0  0  0  0  0  0
   19.0706    1.3424   -0.0109 N   0  0  0  0  0  0  0  0  0  0  0  0
   17.5638    3.2903   -0.0141 C   0  0  0  0  0  0  0  0  0  0  0  0
   16.3362    2.6578   -0.0103 C   0  0  0  0  0  0  0  0  0  0  0  0
   15.0924    3.3772   -0.0073 C   0  0  0  0  0  0  0  0  0  0  0  0
   14.1053    2.4534   -0.0149 C   0  0  0  0  0  0  0  0  0  0  0  0
   14.7490    1.1718   -0.0219 C   0  0  0  0  0  0  0  0  0  0  0  0
   16.1068    1.3097   -0.0168 N   0  0  0  0  0  0  0  0  0  0  0  0
   14.0919   -0.0425   -0.0359 C   0  0  0  0  0  0  0  0  0  0  0  0
   14.7751   -1.2423   -0.0380 C   0  0  0  0  0  0  0  0  0  0  0  0
   14.1593   -2.5375   -0.0504 C   0  0  0  0  0  0  0  0  0  0  0  0
   15.1661   -3.4397   -0.0387 C   0  0  0  0  0  0  0  0  0  0  0  0
   16.3939   -2.6936   -0.0197 C   0  0  0  0  0  0  0  0  0  0  0  0
   16.1354   -1.3508   -0.0218 N   0  0  0  0  0  0  0  0  0  0  0  0
   17.6346   -3.2996    0.0021 C   0  0  0  0  0  0  0  0  0  0  0  0
   18.8637   -2.6696    0.0173 C   0  0  0  0  0  0  0  0  0  0  0  0
   19.0991   -1.3196    0.0072 N   0  0  0  0  0  0  0  0  0  0  0  0
   20.1839   -4.4614    0.0513 H   0  0  0  0  0  0  0  0  0  0  0  0
   22.1570   -2.6198    0.0515 H   0  0  0  0  0  0  0  0  0  0  0  0
   22.1001    2.7081   -0.0281 H   0  0  0  0  0  0  0  0  0  0  0  0
   20.0877    4.5069   -0.0365 H   0  0  0  0  0  0  0  0  0  0  0  0
   17.5522    4.3711   -0.0148 H   0  0  0  0  0  0  0  0  0  0  0  0
   15.0100    4.4471   -0.0006 H   0  0  0  0  0  0  0  0  0  0  0  0
   13.0429    2.6025   -0.0160 H   0  0  0  0  0  0  0  0  0  0  0  0
   13.0131   -0.0541   -0.0446 H   0  0  0  0  0  0  0  0  0  0  0  0
   13.1004   -2.7095   -0.0652 H   0  0  0  0  0  0  0  0  0  0  0  0
   15.1070   -4.5112   -0.0422 H   0  0  0  0  0  0  0  0  0  0  0  0
   17.6462   -4.3804    0.0068 H   0  0  0  0  0  0  0  0  0  0  0  0
   66.1737    0.0298   -0.0089 Fe  0  0  0  0  0  0  0  0  0  0  0  0
   63.6796    3.3595    0.6446 C   0  0  0  0  0  0  0  0  0  0  0  0
   62.6859    2.4558    0.4757 C   0  0  0  0  0  0  0  0  0  0  0  0
   63.3243    1.1997    0.2268 C   0  0  0  0  0  0  0  0  0  0  0  0
   62.6460   -0.0013   -0.0048 C   0  0  0  0  0  0  0  0  0  0  0  0
   63.3449   -1.1904   -0.2356 C   0  0  0  0  0  0  0  0  0  0  0  0
   62.7282   -2.4581   -0.4803 C   0  0  0  0  0  0  0  0  0  0  0  0
   63.7374   -3.3449   -0.6478 C   0  0  0  0  0  0  0  0  0  0  0  0
   64.9629   -2.6130   -0.5046 C   0  0  0  0  0  0  0  0  0  0  0  0
   64.7018   -1.2913   -0.2536 N   0  0  0  0  0  0  0  0  0  0  0  0
   66.2040   -3.2099   -0.6104 C   0  0  0  0  0  0  0  0  0  0  0  0
   67.4330   -2.5914   -0.4919 C   0  0  0  0  0  0  0  0  0  0  0  0
   68.6751   -3.3024   -0.6191 C   0  0  0  0  0  0  0  0  0  0  0  0
   69.6643   -2.3951   -0.4574 C   0  0  0  0  0  0  0  0  0  0  0  0
   69.0235   -1.1321   -0.2311 C   0  0  0  0  0  0  0  0  0  0  0  0
   67.6655   -1.2653   -0.2525 N   0  0  0  0  0  0  0  0  0  0  0  0
   69.6833    0.0627   -0.0226 C   0  0  0  0  0  0  0  0  0  0  0  0
   69.0030    1.2445    0.1931 C   0  0  0  0  0  0  0  0  0  0  0  0
   69.6217    2.5187    0.4180 C   0  0  0  0  0  0  0  0  0  0  0  0
   68.6171    3.4065    0.5916 C   0  0  0  0  0  0  0  0  0  0  0  0
   67.3875    2.6728    0.4716 C   0  0  0  0  0  0  0  0  0  0  0  0
   67.6428    1.3521    0.2261 N   0  0  0  0  0  0  0  0  0  0  0  0
   66.1481    3.2685    0.5995 C   0  0  0  0  0  0  0  0  0  0  0  0
   64.9175    2.6498    0.4968 C   0  0  0  0  0  0  0  0  0  0  0  0
   64.6792    1.3243    0.2428 N   0  0  0  0  0  0  0  0  0  0  0  0
   63.6012    4.4097    0.8496 H   0  0  0  0  0  0  0  0  0  0  0  0
   61.6240    2.6037    0.5123 H   0  0  0  0  0  0  0  0  0  0  0  0
   61.6691   -2.6247   -0.5148 H   0  0  0  0  0  0  0  0  0  0  0  0
   63.6771   -4.3969   -0.8496 H   0  0  0  0  0  0  0  0  0  0  0  0
   66.2131   -4.2727   -0.8073 H   0  0  0  0  0  0  0  0  0  0  0  0
   68.7552   -4.3558   -0.8075 H   0  0  0  0  0  0  0  0  0  0  0  0
   70.7264   -2.5441   -0.4847 H   0  0  0  0  0  0  0  0  0  0  0  0
   70.7622    0.0729   -0.0273 H   0  0  0  0  0  0  0  0  0  0  0  0
   70.6811    2.6876    0.4369 H   0  0  0  0  0  0  0  0  0  0  0  0
   68.6787    4.4606    0.7833 H   0  0  0  0  0  0  0  0  0  0  0  0
   66.1391    4.3305    0.8000 H   0  0  0  0  0  0  0  0  0  0  0  0
   22.5253    0.0477    0.0069 C   0  0  0  0  0  0  0  0  0  0  0  0
   23.7450    0.0546    0.0106 C   0  0  0  0  0  0  0  0  0  0  0  0
   25.0819    0.0642    0.0061 C   0  0  0  0  0  0  0  0  0  0  0  0
   26.3061    0.0665    0.0095 C   0  0  0  0  0  0  0  0  0  0  0  0
   27.6429    0.0691    0.0051 C   0  0  0  0  0  0  0  0  0  0  0  0
   28.8628    0.0697    0.0009 C   0  0  0  0  0  0  0  0  0  0  0  0
   38.7194    0.0437   -0.0221 C   0  0  0  0  0  0  0  0  0  0  0  0
   39.9394    0.0404   -0.0214 C   0  0  0  0  0  0  0  0  0  0  0  0
   41.2760    0.0382   -0.0217 C   0  0  0  0  0  0  0  0  0  0  0  0
   42.5004    0.0361   -0.0212 C   0  0  0  0  0  0  0  0  0  0  0  0
   43.8370    0.0335   -0.0213 C   0  0  0  0  0  0  0  0  0  0  0  0
   45.0571    0.0299   -0.0219 C   0  0  0  0  0  0  0  0  0  0  0  0
   54.9126   -0.0157   -0.0117 C   0  0  0  0  0  0  0  0  0  0  0  0
   56.1324   -0.0185   -0.0100 C   0  0  0  0  0  0  0  0  0  0  0  0
   57.4693   -0.0192   -0.0093 C   0  0  0  0  0  0  0  0  0  0  0  0
   58.6934   -0.0203   -0.0055 C   0  0  0  0  0  0  0  0  0  0  0  0
   60.0304   -0.0163   -0.0068 C   0  0  0  0  0  0  0  0  0  0  0  0
   61.2501   -0.0124   -0.0054 C   0  0  0  0  0  0  0  0  0  0  0  0
   33.7910    0.0563   -0.0155 Fe  0  0  0  0  0  0  0  0  0  0  0  0
   31.3160   -3.3260    0.3961 C   0  0  0  0  0  0  0  0  0  0  0  0
   30.3157   -2.4191    0.2955 C   0  0  0  0  0  0  0  0  0  0  0  0
   30.9452   -1.1439    0.1389 C   0  0  0  0  0  0  0  0  0  0  0  0
   30.2581    0.0665   -0.0041 C   0  0  0  0  0  0  0  0  0  0  0  0
   30.9510    1.2727   -0.1532 C   0  0  0  0  0  0  0  0  0  0  0  0
   30.3279    2.5511   -0.3085 C   0  0  0  0  0  0  0  0  0  0  0  0
   31.3327    3.4519   -0.4187 C   0  0  0  0  0  0  0  0  0  0  0  0
   32.5614    2.7174   -0.3293 C   0  0  0  0  0  0  0  0  0  0  0  0
   32.3068    1.3804   -0.1680 N   0  0  0  0  0  0  0  0  0  0  0  0
   33.7994    3.3257   -0.3983 C   0  0  0  0  0  0  0  0  0  0  0  0
   35.0343    2.7124   -0.3225 C   0  0  0  0  0  0  0  0  0  0  0  0
   36.2668    3.4416   -0.4016 C   0  0  0  0  0  0  0  0  0  0  0  0
   37.2668    2.5351   -0.2960 C   0  0  0  0  0  0  0  0  0  0  0  0
   36.6371    1.2583   -0.1539 C   0  0  0  0  0  0  0  0  0  0  0  0
   35.2821    1.3731   -0.1690 N   0  0  0  0  0  0  0  0  0  0  0  0
   37.3243    0.0468   -0.0208 C   0  0  0  0  0  0  0  0  0  0  0  0
   36.6312   -1.1612    0.1130 C   0  0  0  0  0  0  0  0  0  0  0  0
   37.2545   -2.4416    0.2508 C   0  0  0  0  0  0  0  0  0  0  0  0
   36.2499   -3.3431    0.3564 C   0  0  0  0  0  0  0  0  0  0  0  0
   35.0211   -2.6071    0.2823 C   0  0  0  0  0  0  0  0  0  0  0  0
   35.2756   -1.2688    0.1313 N   0  0  0  0  0  0  0  0  0  0  0  0
   33.7831   -3.2138    0.3615 C   0  0  0  0  0  0  0  0  0  0  0  0
   32.5483   -2.5984    0.3007 C   0  0  0  0  0  0  0  0  0  0  0  0
   32.3003   -1.2595    0.1444 N   0  0  0  0  0  0  0  0  0  0  0  0
   31.2452   -4.3890    0.5230 H   0  0  0  0  0  0  0  0  0  0  0  0
   29.2549   -2.5765    0.3219 H   0  0  0  0  0  0  0  0  0  0  0  0
   29.2679    2.7146   -0.3281 H   0  0  0  0  0  0  0  0  0  0  0  0
   31.2672    4.5149   -0.5482 H   0  0  0  0  0  0  0  0  0  0  0  0
   33.8018    4.3993   -0.5247 H   0  0  0  0  0  0  0  0  0  0  0  0
   36.3379    4.5054   -0.5218 H   0  0  0  0  0  0  0  0  0  0  0  0
   38.3276    2.6938   -0.3109 H   0  0  0  0  0  0  0  0  0  0  0  0
   38.3145   -2.6060    0.2629 H   0  0  0  0  0  0  0  0  0  0  0  0
   36.3155   -4.4075    0.4737 H   0  0  0  0  0  0  0  0  0  0  0  0
   33.7801   -4.2877    0.4850 H   0  0  0  0  0  0  0  0  0  0  0  0
   49.9849    0.0067   -0.0176 Fe  0  0  0  0  0  0  0  0  0  0  0  0
   47.5013   -3.3694    0.3976 C   0  0  0  0  0  0  0  0  0  0  0  0
   46.5035   -2.4602    0.2935 C   0  0  0  0  0  0  0  0  0  0  0  0
   47.1363   -1.1873    0.1322 C   0  0  0  0  0  0  0  0  0  0  0  0
   46.4521    0.0236   -0.0204 C   0  0  0  0  0  0  0  0  0  0  0  0
   47.1481    1.2278   -0.1724 C   0  0  0  0  0  0  0  0  0  0  0  0
   46.5275    2.5062   -0.3363 C   0  0  0  0  0  0  0  0  0  0  0  0
   47.5340    3.4059   -0.4409 C   0  0  0  0  0  0  0  0  0  0  0  0
   48.7612    2.6705   -0.3400 C   0  0  0  0  0  0  0  0  0  0  0  0
   48.5039    1.3340   -0.1780 N   0  0  0  0  0  0  0  0  0  0  0  0
   50.0006    3.2769   -0.3977 C   0  0  0  0  0  0  0  0  0  0  0  0
   51.2338    2.6612   -0.3124 C   0  0  0  0  0  0  0  0  0  0  0  0
   52.4680    3.3886   -0.3808 C   0  0  0  0  0  0  0  0  0  0  0  0
   53.4659    2.4799   -0.2731 C   0  0  0  0  0  0  0  0  0  0  0  0
   52.8331    1.2036   -0.1402 C   0  0  0  0  0  0  0  0  0  0  0  0
   51.4783    1.3209   -0.1621 N   0  0  0  0  0  0  0  0  0  0  0  0
   53.5173   -0.0101   -0.0129 C   0  0  0  0  0  0  0  0  0  0  0  0
   52.8217   -1.2174    0.1120 C   0  0  0  0  0  0  0  0  0  0  0  0
   53.4419   -2.4997    0.2454 C   0  0  0  0  0  0  0  0  0  0  0  0
   52.4351   -3.3990    0.3486 C   0  0  0  0  0  0  0  0  0  0  0  0
   51.2081   -2.6597    0.2775 C   0  0  0  0  0  0  0  0  0  0  0  0
   51.4657   -1.3217    0.1297 N   0  0  0  0  0  0  0  0  0  0  0  0
   49.9688   -3.2637    0.3586 C   0  0  0  0  0  0  0  0  0  0  0  0
   48.7355   -2.6454    0.2995 C   0  0  0  0  0  0  0  0  0  0  0  0
   48.4910   -1.3062    0.1395 N   0  0  0  0  0  0  0  0  0  0  0  0
   47.4277   -4.4317    0.5283 H   0  0  0  0  0  0  0  0  0  0  0  0
   45.4423   -2.6149    0.3202 H   0  0  0  0  0  0  0  0  0  0  0  0
   45.4678    2.6699   -0.3645 H   0  0  0  0  0  0  0  0  0  0  0  0
   47.4706    4.4686   -0.5737 H   0  0  0  0  0  0  0  0  0  0  0  0
   50.0062    4.3505   -0.5231 H   0  0  0  0  0  0  0  0  0  0  0  0
   52.5416    4.4527   -0.4963 H   0  0  0  0  0  0  0  0  0  0  0  0
   54.5271    2.6366   -0.2814 H   0  0  0  0  0  0  0  0  0  0  0  0
   54.5015   -2.6666    0.2569 H   0  0  0  0  0  0  0  0  0  0  0  0
   52.4980   -4.4640    0.4629 H   0  0  0  0  0  0  0  0  0  0  0  0
   49.9637   -4.3376    0.4819 H   0  0  0  0  0  0  0  0  0  0  0  0
  2  3  2  0  0  0  0
  3  4  1  0  0  0  0
  4  5  4  0  0  0  0
  5  6  4  0  0  0  0
  6  7  1  0  0  0  0
  7  8  2  0  0  0  0
  8  9  1  0  0  0  0
  1 10  1  0  0  0  0
  6 10  4  0  0  0  0
  9 10  4  0  0  0  0
  9 11  4  0  0  0  0
 11 12  4  0  0  0  0
 12 13  1  0  0  0  0
 13 14  2  0  0  0  0
 14 15  1  0  0  0  0
  1 16  1  0  0  0  0
 12 16  4  0  0  0  0
 15 16  4  0  0  0  0
 15 17  4  0  0  0  0
 17 18  4  0  0  0  0
 18 19  1  0  0  0  0
 19 20  2  0  0  0  0
 20 21  1  0  0  0  0
  1 22  1  0  0  0  0
 18 22  4  0  0  0  0
 21 22  4  0  0  0  0
 21 23  4  0  0  0  0
  2 24  1  0  0  0  0
 23 24  4  0  0  0  0
  1 25  1  0  0  0  0
  4 25  4  0  0  0  0
 24 25  4  0  0  0  0
  2 26  1  0  0  0  0
  3 27  1  0  0  0  0
  7 28  1  0  0  0  0
  8 29  1  0  0  0  0
 11 30  1  0  0  0  0
 13 31  1  0  0  0  0
 14 32  1  0  0  0  0
 17 33  1  0  0  0  0
 19 34  1  0  0  0  0
 20 35  1  0  0  0  0
 23 36  1  0  0  0  0
 38 39  2  0  0  0  0
 39 40  1  0  0  0  0
 40 41  4  0  0  0  0
 41 42  4  0  0  0  0
 42 43  1  0  0  0  0
 43 44  2  0  0  0  0
 44 45  1  0  0  0  0
 37 46  1  0  0  0  0
 42 46  4  0  0  0  0
 45 46  4  0  0  0  0
 45 47  4  0  0  0  0
 47 48  4  0  0  0  0
 48 49  1  0  0  0  0
 49 50  2  0  0  0  0
 50 51  1  0  0  0  0
 37 52  1  0  0  0  0
 48 52  4  0  0  0  0
 51 52  4  0  0  0  0
 51 53  4  0  0  0  0
 53 54  4  0  0  0  0
 54 55  1  0  0  0  0
 55 56  2  0  0  0  0
 56 57  1  0  0  0  0
 37 58  1  0  0  0  0
 54 58  4  0  0  0  0
 57 58  4  0  0  0  0
 57 59  4  0  0  0  0
 38 60  1  0  0  0  0
 59 60  4  0  0  0  0
 37 61  1  0  0  0  0
 40 61  4  0  0  0  0
 60 61  4  0  0  0  0
 38 62  1  0  0  0  0
 39 63  1  0  0  0  0
 43 64  1  0  0  0  0
 44 65  1  0  0  0  0
 47 66  1  0  0  0  0
 49 67  1  0  0  0  0
 50 68  1  0  0  0  0
 53 69  1  0  0  0  0
 55 70  1  0  0  0  0
 56 71  1  0  0  0  0
 59 72  1  0  0  0  0
  5 73  1  0  0  0  0
 73 74  3  0  0  0  0
 74 75  4  0  0  0  0
 75 76  3  0  0  0  0
 76 77  4  0  0  0  0
 77 78  3  0  0  0  0
 79 80  3  0  0  0  0
 80 81  4  0  0  0  0
 81 82  3  0  0  0  0
 82 83  4  0  0  0  0
 83 84  3  0  0  0  0
 85 86  3  0  0  0  0
 86 87  4  0  0  0  0
 87 88  3  0  0  0  0
 88 89  4  0  0  0  0
 41 90  1  0  0  0  0
 89 90  3  0  0  0  0
 92 93  2  0  0  0  0
 93 94  1  0  0  0  0
 78 95  1  0  0  0  0
 94 95  4  0  0  0  0
 95 96  4  0  0  0  0
 96 97  1  0  0  0  0
 97 98  2  0  0  0  0
 98 99  1  0  0  0  0
 91100  1  0  0  0  0
 96100  4  0  0  0  0
 99100  4  0  0  0  0
 99101  4  0  0  0  0
101102  4  0  0  0  0
102103  1  0  0  0  0
103104  2  0  0  0  0
104105  1  0  0  0  0
 91106  1  0  0  0  0
102106  4  0  0  0  0
105106  4  0  0  0  0
 79107  1  0  0  0  0
105107  4  0  0  0  0
107108  4  0  0  0  0
108109  1  0  0  0  0
109110  2  0  0  0  0
110111  1  0  0  0  0
 91112  1  0  0  0  0
108112  4  0  0  0  0
111112  4  0  0  0  0
111113  4  0  0  0  0
 92114  1  0  0  0  0
113114  4  0  0  0  0
 91115  1  0  0  0  0
 94115  4  0  0  0  0
114115  4  0  0  0  0
 92116  1  0  0  0  0
 93117  1  0  0  0  0
 97118  1  0  0  0  0
 98119  1  0  0  0  0
101120  1  0  0  0  0
103121  1  0  0  0  0
104122  1  0  0  0  0
109123  1  0  0  0  0
110124  1  0  0  0  0
113125  1  0  0  0  0
127128  2  0  0  0  0
128129  1  0  0  0  0
 84130  1  0  0  0  0
129130  4  0  0  0  0
130131  4  0  0  0  0
131132  1  0  0  0  0
132133  2  0  0  0  0
133134  1  0  0  0  0
126135  1  0  0  0  0
131135  4  0  0  0  0
134135  4  0  0  0  0
134136  4  0  0  0  0
136137  4  0  0  0  0
137138  1  0  0  0  0
138139  2  0  0  0  0
139140  1  0  0  0  0
126141  1  0  0  0  0
137141  4  0  0  0  0
140141  4  0  0  0  0
 85142  1  0  0  0  0
140142  4  0  0  0  0
142143  4  0  0  0  0
143144  1  0  0  0  0
144145  2  0  0  0  0
145146  1  0  0  0  0
126147  1  0  0  0  0
143147  4  0  0  0  0
146147  4  0  0  0  0
146148  4  0  0  0  0
127149  1  0  0  0  0
148149  4  0  0  0  0
126150  1  0  0  0  0
129150  4  0  0  0  0
149150  4  0  0  0  0
127151  1  0  0  0  0
128152  1  0  0  0  0
132153  1  0  0  0  0
133154  1  0  0  0  0
136155  1  0  0  0  0
138156  1  0  0  0  0
139157  1  0  0  0  0
144158  1  0  0  0  0
145159  1  0  0  0  0
148160  1  0  0  0  0
M  END
