
  xtb     11212118143D
 xtb: 6.4.1 (bd6e46d)
310373  0     0  0            999 V2000
   50.6151    0.0036   -0.0128 Cu  0  0  0  0  0  0  0  0  0  0  0  0
   53.1222   -3.4362    0.0413 C   0  0  0  0  0  0  0  0  0  0  0  0
   54.0803   -2.4792    0.0259 C   0  0  0  0  0  0  0  0  0  0  0  0
   53.3987   -1.2169    0.0066 C   0  0  0  0  0  0  0  0  0  0  0  0
   54.0529    0.0236   -0.0128 C   0  0  0  0  0  0  0  0  0  0  0  0
   53.3841    1.2564   -0.0302 C   0  0  0  0  0  0  0  0  0  0  0  0
   54.0510    2.5266   -0.0459 C   0  0  0  0  0  0  0  0  0  0  0  0
   53.0819    3.4723   -0.0579 C   0  0  0  0  0  0  0  0  0  0  0  0
   51.8261    2.7779   -0.0503 C   0  0  0  0  0  0  0  0  0  0  0  0
   52.0434    1.4345   -0.0331 N   0  0  0  0  0  0  0  0  0  0  0  0
   50.5937    3.4061   -0.0614 C   0  0  0  0  0  0  0  0  0  0  0  0
   49.3697    2.7614   -0.0557 C   0  0  0  0  0  0  0  0  0  0  0  0
   48.1008    3.4371   -0.0695 C   0  0  0  0  0  0  0  0  0  0  0  0
   47.1483    2.4769   -0.0571 C   0  0  0  0  0  0  0  0  0  0  0  0
   47.8341    1.2134   -0.0354 C   0  0  0  0  0  0  0  0  0  0  0  0
   49.1754    1.4184   -0.0356 N   0  0  0  0  0  0  0  0  0  0  0  0
   47.1997   -0.0163   -0.0165 C   0  0  0  0  0  0  0  0  0  0  0  0
   47.8485   -1.2384    0.0041 C   0  0  0  0  0  0  0  0  0  0  0  0
   47.1774   -2.5098    0.0234 C   0  0  0  0  0  0  0  0  0  0  0  0
   48.1411   -3.4588    0.0392 C   0  0  0  0  0  0  0  0  0  0  0  0
   49.4020   -2.7684    0.0296 C   0  0  0  0  0  0  0  0  0  0  0  0
   49.1922   -1.4276    0.0084 N   0  0  0  0  0  0  0  0  0  0  0  0
   50.6333   -3.3987    0.0403 C   0  0  0  0  0  0  0  0  0  0  0  0
   51.8584   -2.7564    0.0307 C   0  0  0  0  0  0  0  0  0  0  0  0
   52.0602   -1.4106    0.0099 N   0  0  0  0  0  0  0  0  0  0  0  0
   53.2408   -4.5024    0.0579 H   0  0  0  0  0  0  0  0  0  0  0  0
   55.1469   -2.5945    0.0271 H   0  0  0  0  0  0  0  0  0  0  0  0
   55.1161    2.6543   -0.0465 H   0  0  0  0  0  0  0  0  0  0  0  0
   53.1881    4.5397   -0.0707 H   0  0  0  0  0  0  0  0  0  0  0  0
   50.5878    4.4865   -0.0763 H   0  0  0  0  0  0  0  0  0  0  0  0
   47.9795    4.5030   -0.0866 H   0  0  0  0  0  0  0  0  0  0  0  0
   46.0813    2.5897   -0.0617 H   0  0  0  0  0  0  0  0  0  0  0  0
   46.1195   -0.0227   -0.0179 H   0  0  0  0  0  0  0  0  0  0  0  0
   46.1118   -2.6350    0.0244 H   0  0  0  0  0  0  0  0  0  0  0  0
   48.0321   -4.5261    0.0558 H   0  0  0  0  0  0  0  0  0  0  0  0
   50.6398   -4.4791    0.0572 H   0  0  0  0  0  0  0  0  0  0  0  0
  144.8331    0.0424   -0.0148 Cu  0  0  0  0  0  0  0  0  0  0  0  0
  142.3340    3.4500    0.4950 C   0  0  0  0  0  0  0  0  0  0  0  0
  141.3735    2.5061    0.3509 C   0  0  0  0  0  0  0  0  0  0  0  0
  142.0521    1.2557    0.1655 C   0  0  0  0  0  0  0  0  0  0  0  0
  141.3946    0.0296   -0.0130 C   0  0  0  0  0  0  0  0  0  0  0  0
  142.0606   -1.1917   -0.1927 C   0  0  0  0  0  0  0  0  0  0  0  0
  141.3911   -2.4468   -0.3789 C   0  0  0  0  0  0  0  0  0  0  0  0
  142.3583   -3.3834   -0.5248 C   0  0  0  0  0  0  0  0  0  0  0  0
  143.6155   -2.6984   -0.4272 C   0  0  0  0  0  0  0  0  0  0  0  0
  143.4009   -1.3698   -0.2250 N   0  0  0  0  0  0  0  0  0  0  0  0
  144.8466   -3.3209   -0.5300 C   0  0  0  0  0  0  0  0  0  0  0  0
  146.0721   -2.6855   -0.4388 C   0  0  0  0  0  0  0  0  0  0  0  0
  147.3393   -3.3553   -0.5493 C   0  0  0  0  0  0  0  0  0  0  0  0
  148.2942   -2.4084   -0.4039 C   0  0  0  0  0  0  0  0  0  0  0  0
  147.6114   -1.1588   -0.2050 C   0  0  0  0  0  0  0  0  0  0  0  0
  146.2695   -1.3587   -0.2322 N   0  0  0  0  0  0  0  0  0  0  0  0
  148.2488    0.0546   -0.0140 C   0  0  0  0  0  0  0  0  0  0  0  0
  147.6029    1.2636    0.1760 C   0  0  0  0  0  0  0  0  0  0  0  0
  148.2767    2.5184    0.3730 C   0  0  0  0  0  0  0  0  0  0  0  0
  147.3151    3.4586    0.5166 C   0  0  0  0  0  0  0  0  0  0  0  0
  146.0527    2.7795    0.4079 C   0  0  0  0  0  0  0  0  0  0  0  0
  146.2596    1.4539    0.2030 N   0  0  0  0  0  0  0  0  0  0  0  0
  144.8226    3.4058    0.4989 C   0  0  0  0  0  0  0  0  0  0  0  0
  143.5961    2.7741    0.3975 C   0  0  0  0  0  0  0  0  0  0  0  0
  143.3911    1.4437    0.1966 N   0  0  0  0  0  0  0  0  0  0  0  0
  142.2179    4.5047    0.6530 H   0  0  0  0  0  0  0  0  0  0  0  0
  140.3073    2.6231    0.3662 H   0  0  0  0  0  0  0  0  0  0  0  0
  140.3257   -2.5715   -0.3936 H   0  0  0  0  0  0  0  0  0  0  0  0
  142.2497   -4.4388   -0.6839 H   0  0  0  0  0  0  0  0  0  0  0  0
  144.8502   -4.3888   -0.6947 H   0  0  0  0  0  0  0  0  0  0  0  0
  147.4582   -4.4087   -0.7155 H   0  0  0  0  0  0  0  0  0  0  0  0
  149.3609   -2.5217   -0.4259 H   0  0  0  0  0  0  0  0  0  0  0  0
  149.3290    0.0583   -0.0138 H   0  0  0  0  0  0  0  0  0  0  0  0
  149.3426    2.6394    0.3946 H   0  0  0  0  0  0  0  0  0  0  0  0
  147.4263    4.5132    0.6807 H   0  0  0  0  0  0  0  0  0  0  0  0
  144.8182    4.4739    0.6621 H   0  0  0  0  0  0  0  0  0  0  0  0
   55.4503    0.0322   -0.0153 C   0  0  0  0  0  0  0  0  0  0  0  0
   56.6685    0.0406   -0.0178 C   0  0  0  0  0  0  0  0  0  0  0  0
   58.0100    0.0479   -0.0197 C   0  0  0  0  0  0  0  0  0  0  0  0
   59.2283    0.0534   -0.0201 C   0  0  0  0  0  0  0  0  0  0  0  0
   68.9102    0.0806   -0.0167 C   0  0  0  0  0  0  0  0  0  0  0  0
   70.1288    0.0763   -0.0173 C   0  0  0  0  0  0  0  0  0  0  0  0
   71.4699    0.0722   -0.0175 C   0  0  0  0  0  0  0  0  0  0  0  0
   72.6885    0.0633   -0.0181 C   0  0  0  0  0  0  0  0  0  0  0  0
   82.3703    0.0378   -0.0218 C   0  0  0  0  0  0  0  0  0  0  0  0
   83.5889    0.0355   -0.0228 C   0  0  0  0  0  0  0  0  0  0  0  0
   84.9300    0.0359   -0.0203 C   0  0  0  0  0  0  0  0  0  0  0  0
   86.1486    0.0374   -0.0209 C   0  0  0  0  0  0  0  0  0  0  0  0
   95.8307    0.0469   -0.0218 C   0  0  0  0  0  0  0  0  0  0  0  0
   97.0493    0.0435   -0.0252 C   0  0  0  0  0  0  0  0  0  0  0  0
   98.3904    0.0426   -0.0246 C   0  0  0  0  0  0  0  0  0  0  0  0
   99.6090    0.0404   -0.0243 C   0  0  0  0  0  0  0  0  0  0  0  0
  109.2923    0.0556   -0.0219 C   0  0  0  0  0  0  0  0  0  0  0  0
  110.5110    0.0531   -0.0238 C   0  0  0  0  0  0  0  0  0  0  0  0
  111.8522    0.0523   -0.0232 C   0  0  0  0  0  0  0  0  0  0  0  0
  113.0708    0.0484   -0.0230 C   0  0  0  0  0  0  0  0  0  0  0  0
  122.7556    0.0317   -0.0255 C   0  0  0  0  0  0  0  0  0  0  0  0
  123.9742    0.0266   -0.0254 C   0  0  0  0  0  0  0  0  0  0  0  0
  125.3155    0.0233   -0.0252 C   0  0  0  0  0  0  0  0  0  0  0  0
  126.5341    0.0191   -0.0236 C   0  0  0  0  0  0  0  0  0  0  0  0
  136.2187    0.0179   -0.0126 C   0  0  0  0  0  0  0  0  0  0  0  0
  137.4370    0.0203   -0.0127 C   0  0  0  0  0  0  0  0  0  0  0  0
  138.7788    0.0218   -0.0125 C   0  0  0  0  0  0  0  0  0  0  0  0
  139.9969    0.0252   -0.0125 C   0  0  0  0  0  0  0  0  0  0  0  0
   64.0694    0.0685   -0.0177 Cu  0  0  0  0  0  0  0  0  0  0  0  0
   61.5912   -3.3746    0.3306 C   0  0  0  0  0  0  0  0  0  0  0  0
   60.6230   -2.4324    0.2338 C   0  0  0  0  0  0  0  0  0  0  0  0
   61.2918   -1.1698    0.1047 C   0  0  0  0  0  0  0  0  0  0  0  0
   60.6251    0.0585   -0.0205 C   0  0  0  0  0  0  0  0  0  0  0  0
   61.2842    1.2908   -0.1456 C   0  0  0  0  0  0  0  0  0  0  0  0
   60.6084    2.5496   -0.2762 C   0  0  0  0  0  0  0  0  0  0  0  0
   61.5713    3.4974   -0.3713 C   0  0  0  0  0  0  0  0  0  0  0  0
   62.8313    2.8149   -0.2987 C   0  0  0  0  0  0  0  0  0  0  0  0
   62.6231    1.4769   -0.1622 N   0  0  0  0  0  0  0  0  0  0  0  0
   64.0597    3.4476   -0.3592 C   0  0  0  0  0  0  0  0  0  0  0  0
   65.2915    2.8220   -0.2925 C   0  0  0  0  0  0  0  0  0  0  0  0
   66.5476    3.5124   -0.3581 C   0  0  0  0  0  0  0  0  0  0  0  0
   67.5158    2.5701   -0.2626 C   0  0  0  0  0  0  0  0  0  0  0  0
   66.8472    1.3069   -0.1387 C   0  0  0  0  0  0  0  0  0  0  0  0
   65.5073    1.4849   -0.1588 N   0  0  0  0  0  0  0  0  0  0  0  0
   67.5138    0.0782   -0.0163 C   0  0  0  0  0  0  0  0  0  0  0  0
   66.8543   -1.1544    0.1066 C   0  0  0  0  0  0  0  0  0  0  0  0
   67.5301   -2.4134    0.2331 C   0  0  0  0  0  0  0  0  0  0  0  0
   66.5672   -3.3613    0.3286 C   0  0  0  0  0  0  0  0  0  0  0  0
   65.3073   -2.6784    0.2599 C   0  0  0  0  0  0  0  0  0  0  0  0
   65.5155   -1.3402    0.1253 N   0  0  0  0  0  0  0  0  0  0  0  0
   64.0790   -3.3107    0.3240 C   0  0  0  0  0  0  0  0  0  0  0  0
   62.8473   -2.6848    0.2602 C   0  0  0  0  0  0  0  0  0  0  0  0
   62.6317   -1.3480    0.1234 N   0  0  0  0  0  0  0  0  0  0  0  0
   61.4837   -4.4364    0.4395 H   0  0  0  0  0  0  0  0  0  0  0  0
   59.5578   -2.5580    0.2467 H   0  0  0  0  0  0  0  0  0  0  0  0
   59.5424    2.6689   -0.2914 H   0  0  0  0  0  0  0  0  0  0  0  0
   61.4578    4.5586   -0.4807 H   0  0  0  0  0  0  0  0  0  0  0  0
   64.0569    4.5228   -0.4675 H   0  0  0  0  0  0  0  0  0  0  0  0
   66.6550    4.5746   -0.4630 H   0  0  0  0  0  0  0  0  0  0  0  0
   68.5811    2.6960   -0.2726 H   0  0  0  0  0  0  0  0  0  0  0  0
   68.5960   -2.5333    0.2449 H   0  0  0  0  0  0  0  0  0  0  0  0
   66.6808   -4.4227    0.4353 H   0  0  0  0  0  0  0  0  0  0  0  0
   64.0818   -4.3859    0.4334 H   0  0  0  0  0  0  0  0  0  0  0  0
   77.5294    0.0497   -0.0217 Cu  0  0  0  0  0  0  0  0  0  0  0  0
   75.0324   -3.3732    0.3871 C   0  0  0  0  0  0  0  0  0  0  0  0
   74.0693   -2.4271    0.2780 C   0  0  0  0  0  0  0  0  0  0  0  0
   74.7448   -1.1707    0.1264 C   0  0  0  0  0  0  0  0  0  0  0  0
   74.0848    0.0591   -0.0195 C   0  0  0  0  0  0  0  0  0  0  0  0
   74.7512    1.2852   -0.1669 C   0  0  0  0  0  0  0  0  0  0  0  0
   74.0823    2.5453   -0.3176 C   0  0  0  0  0  0  0  0  0  0  0  0
   75.0504    3.4860   -0.4291 C   0  0  0  0  0  0  0  0  0  0  0  0
   76.3065    2.7978   -0.3461 C   0  0  0  0  0  0  0  0  0  0  0  0
   76.0910    1.4633   -0.1876 N   0  0  0  0  0  0  0  0  0  0  0  0
   77.5382    3.4228   -0.4174 C   0  0  0  0  0  0  0  0  0  0  0  0
   78.7665    2.7919   -0.3410 C   0  0  0  0  0  0  0  0  0  0  0  0
   80.0262    3.4742   -0.4177 C   0  0  0  0  0  0  0  0  0  0  0  0
   80.9894    2.5283   -0.3067 C   0  0  0  0  0  0  0  0  0  0  0  0
   80.3139    1.2709   -0.1629 C   0  0  0  0  0  0  0  0  0  0  0  0
   78.9750    1.4558   -0.1860 N   0  0  0  0  0  0  0  0  0  0  0  0
   80.9740    0.0405   -0.0225 C   0  0  0  0  0  0  0  0  0  0  0  0
   80.3077   -1.1865    0.1173 C   0  0  0  0  0  0  0  0  0  0  0  0
   80.9765   -2.4476    0.2593 C   0  0  0  0  0  0  0  0  0  0  0  0
   80.0084   -3.3886    0.3689 C   0  0  0  0  0  0  0  0  0  0  0  0
   78.7523   -2.6995    0.2937 C   0  0  0  0  0  0  0  0  0  0  0  0
   78.9678   -1.3643    0.1405 N   0  0  0  0  0  0  0  0  0  0  0  0
   77.5205   -3.3238    0.3708 C   0  0  0  0  0  0  0  0  0  0  0  0
   76.2922   -2.6920    0.3020 C   0  0  0  0  0  0  0  0  0  0  0  0
   76.0837   -1.3562    0.1445 N   0  0  0  0  0  0  0  0  0  0  0  0
   74.9191   -4.4325    0.5135 H   0  0  0  0  0  0  0  0  0  0  0  0
   73.0034   -2.5464    0.2958 H   0  0  0  0  0  0  0  0  0  0  0  0
   73.0170    2.6705   -0.3335 H   0  0  0  0  0  0  0  0  0  0  0  0
   74.9427    4.5459   -0.5556 H   0  0  0  0  0  0  0  0  0  0  0  0
   77.5411    4.4961   -0.5434 H   0  0  0  0  0  0  0  0  0  0  0  0
   80.1395    4.5340   -0.5399 H   0  0  0  0  0  0  0  0  0  0  0  0
   82.0553    2.6484   -0.3187 H   0  0  0  0  0  0  0  0  0  0  0  0
   82.0418   -2.5733    0.2708 H   0  0  0  0  0  0  0  0  0  0  0  0
   80.1160   -4.4492    0.4892 H   0  0  0  0  0  0  0  0  0  0  0  0
   77.5177   -4.3972    0.4957 H   0  0  0  0  0  0  0  0  0  0  0  0
   90.9896    0.0426   -0.0195 Cu  0  0  0  0  0  0  0  0  0  0  0  0
   88.5054   -3.3896    0.3914 C   0  0  0  0  0  0  0  0  0  0  0  0
   87.5387   -2.4474    0.2792 C   0  0  0  0  0  0  0  0  0  0  0  0
   88.2094   -1.1885    0.1276 C   0  0  0  0  0  0  0  0  0  0  0  0
   87.5449    0.0386   -0.0202 C   0  0  0  0  0  0  0  0  0  0  0  0
   88.2069    1.2673   -0.1668 C   0  0  0  0  0  0  0  0  0  0  0  0
   87.5334    2.5248   -0.3178 C   0  0  0  0  0  0  0  0  0  0  0  0
   88.4980    3.4693   -0.4281 C   0  0  0  0  0  0  0  0  0  0  0  0
   89.7567    2.7860   -0.3442 C   0  0  0  0  0  0  0  0  0  0  0  0
   89.5461    1.4505   -0.1862 N   0  0  0  0  0  0  0  0  0  0  0  0
   90.9860    3.4157   -0.4153 C   0  0  0  0  0  0  0  0  0  0  0  0
   92.2167    2.7894   -0.3394 C   0  0  0  0  0  0  0  0  0  0  0  0
   93.4739    3.4762   -0.4174 C   0  0  0  0  0  0  0  0  0  0  0  0
   94.4406    2.5338   -0.3073 C   0  0  0  0  0  0  0  0  0  0  0  0
   93.7699    1.2741   -0.1624 C   0  0  0  0  0  0  0  0  0  0  0  0
   92.4303    1.4541   -0.1843 N   0  0  0  0  0  0  0  0  0  0  0  0
   94.4344    0.0462   -0.0209 C   0  0  0  0  0  0  0  0  0  0  0  0
   93.7723   -1.1828    0.1224 C   0  0  0  0  0  0  0  0  0  0  0  0
   94.4458   -2.4409    0.2683 C   0  0  0  0  0  0  0  0  0  0  0  0
   93.4812   -3.3851    0.3807 C   0  0  0  0  0  0  0  0  0  0  0  0
   92.2225   -2.7010    0.3030 C   0  0  0  0  0  0  0  0  0  0  0  0
   92.4331   -1.3655    0.1460 N   0  0  0  0  0  0  0  0  0  0  0  0
   90.9933   -3.3301    0.3801 C   0  0  0  0  0  0  0  0  0  0  0  0
   89.7625   -2.7033    0.3079 C   0  0  0  0  0  0  0  0  0  0  0  0
   89.5490   -1.3686    0.1483 N   0  0  0  0  0  0  0  0  0  0  0  0
   88.3961   -4.4492    0.5187 H   0  0  0  0  0  0  0  0  0  0  0  0
   86.4732   -2.5709    0.2950 H   0  0  0  0  0  0  0  0  0  0  0  0
   86.4677    2.6459   -0.3345 H   0  0  0  0  0  0  0  0  0  0  0  0
   88.3863    4.5288   -0.5544 H   0  0  0  0  0  0  0  0  0  0  0  0
   90.9846    4.4890   -0.5412 H   0  0  0  0  0  0  0  0  0  0  0  0
   93.5832    4.5364   -0.5399 H   0  0  0  0  0  0  0  0  0  0  0  0
   95.5061    2.6577   -0.3204 H   0  0  0  0  0  0  0  0  0  0  0  0
   95.5115   -2.5626    0.2804 H   0  0  0  0  0  0  0  0  0  0  0  0
   93.5928   -4.4449    0.5044 H   0  0  0  0  0  0  0  0  0  0  0  0
   90.9946   -4.4033    0.5072 H   0  0  0  0  0  0  0  0  0  0  0  0
  104.4505    0.0481   -0.0213 Cu  0  0  0  0  0  0  0  0  0  0  0  0
  101.9682   -3.3854    0.3887 C   0  0  0  0  0  0  0  0  0  0  0  0
  101.0009   -2.4441    0.2759 C   0  0  0  0  0  0  0  0  0  0  0  0
  101.6707   -1.1846    0.1245 C   0  0  0  0  0  0  0  0  0  0  0  0
  101.0053    0.0420   -0.0235 C   0  0  0  0  0  0  0  0  0  0  0  0
  101.6667    1.2710   -0.1701 C   0  0  0  0  0  0  0  0  0  0  0  0
  100.9927    2.5282   -0.3214 C   0  0  0  0  0  0  0  0  0  0  0  0
  101.9569    3.4731   -0.4319 C   0  0  0  0  0  0  0  0  0  0  0  0
  103.2158    2.7903   -0.3478 C   0  0  0  0  0  0  0  0  0  0  0  0
  103.0059    1.4548   -0.1894 N   0  0  0  0  0  0  0  0  0  0  0  0
  104.4449    3.4205   -0.4192 C   0  0  0  0  0  0  0  0  0  0  0  0
  105.6760    2.7950   -0.3429 C   0  0  0  0  0  0  0  0  0  0  0  0
  106.9327    3.4827   -0.4215 C   0  0  0  0  0  0  0  0  0  0  0  0
  107.9000    2.5412   -0.3106 C   0  0  0  0  0  0  0  0  0  0  0  0
  107.2304    1.2810   -0.1645 C   0  0  0  0  0  0  0  0  0  0  0  0
  105.8906    1.4600   -0.1869 N   0  0  0  0  0  0  0  0  0  0  0  0
  107.8959    0.0539   -0.0217 C   0  0  0  0  0  0  0  0  0  0  0  0
  107.2344   -1.1754    0.1223 C   0  0  0  0  0  0  0  0  0  0  0  0
  107.9083   -2.4332    0.2694 C   0  0  0  0  0  0  0  0  0  0  0  0
  106.9441   -3.3778    0.3818 C   0  0  0  0  0  0  0  0  0  0  0  0
  105.6851   -2.6943    0.3029 C   0  0  0  0  0  0  0  0  0  0  0  0
  105.8952   -1.3588    0.1452 N   0  0  0  0  0  0  0  0  0  0  0  0
  104.4561   -3.3240    0.3793 C   0  0  0  0  0  0  0  0  0  0  0  0
  103.2249   -2.6982    0.3059 C   0  0  0  0  0  0  0  0  0  0  0  0
  103.0104   -1.3637    0.1460 N   0  0  0  0  0  0  0  0  0  0  0  0
  101.8597   -4.4451    0.5160 H   0  0  0  0  0  0  0  0  0  0  0  0
   99.9355   -2.5685    0.2911 H   0  0  0  0  0  0  0  0  0  0  0  0
   99.9269    2.6488   -0.3382 H   0  0  0  0  0  0  0  0  0  0  0  0
  101.8447    4.5325   -0.5584 H   0  0  0  0  0  0  0  0  0  0  0  0
  104.4431    4.4938   -0.5456 H   0  0  0  0  0  0  0  0  0  0  0  0
  107.0410    4.5429   -0.5448 H   0  0  0  0  0  0  0  0  0  0  0  0
  108.9654    2.6659   -0.3237 H   0  0  0  0  0  0  0  0  0  0  0  0
  108.9741   -2.5544    0.2823 H   0  0  0  0  0  0  0  0  0  0  0  0
  107.0561   -4.4374    0.5063 H   0  0  0  0  0  0  0  0  0  0  0  0
  104.4580   -4.3971    0.5069 H   0  0  0  0  0  0  0  0  0  0  0  0
  117.9131    0.0405   -0.0229 Cu  0  0  0  0  0  0  0  0  0  0  0  0
  115.4195   -3.3840    0.3916 C   0  0  0  0  0  0  0  0  0  0  0  0
  114.4551   -2.4396    0.2795 C   0  0  0  0  0  0  0  0  0  0  0  0
  115.1288   -1.1824    0.1260 C   0  0  0  0  0  0  0  0  0  0  0  0
  114.4672    0.0462   -0.0232 C   0  0  0  0  0  0  0  0  0  0  0  0
  115.1328    1.2727   -0.1718 C   0  0  0  0  0  0  0  0  0  0  0  0
  114.4634    2.5321   -0.3248 C   0  0  0  0  0  0  0  0  0  0  0  0
  115.4309    3.4734   -0.4361 C   0  0  0  0  0  0  0  0  0  0  0  0
  116.6875    2.7863   -0.3503 C   0  0  0  0  0  0  0  0  0  0  0  0
  116.4727    1.4518   -0.1908 N   0  0  0  0  0  0  0  0  0  0  0  0
  117.9188    3.4123   -0.4207 C   0  0  0  0  0  0  0  0  0  0  0  0
  119.1480    2.7830   -0.3434 C   0  0  0  0  0  0  0  0  0  0  0  0
  120.4068    3.4670   -0.4203 C   0  0  0  0  0  0  0  0  0  0  0  0
  121.3712    2.5224   -0.3100 C   0  0  0  0  0  0  0  0  0  0  0  0
  120.6976    1.2641   -0.1656 C   0  0  0  0  0  0  0  0  0  0  0  0
  119.3583    1.4473   -0.1883 N   0  0  0  0  0  0  0  0  0  0  0  0
  121.3591    0.0345   -0.0248 C   0  0  0  0  0  0  0  0  0  0  0  0
  120.6934   -1.1927    0.1173 C   0  0  0  0  0  0  0  0  0  0  0  0
  121.3628   -2.4530    0.2626 C   0  0  0  0  0  0  0  0  0  0  0  0
  120.3953   -3.3941    0.3760 C   0  0  0  0  0  0  0  0  0  0  0  0
  119.1387   -2.7060    0.2991 C   0  0  0  0  0  0  0  0  0  0  0  0
  119.3535   -1.3712    0.1418 N   0  0  0  0  0  0  0  0  0  0  0  0
  117.9075   -3.3311    0.3778 C   0  0  0  0  0  0  0  0  0  0  0  0
  116.6783   -2.7010    0.3066 C   0  0  0  0  0  0  0  0  0  0  0  0
  116.4680   -1.3659    0.1460 N   0  0  0  0  0  0  0  0  0  0  0  0
  115.3077   -4.4433    0.5199 H   0  0  0  0  0  0  0  0  0  0  0  0
  113.3894   -2.5604    0.2964 H   0  0  0  0  0  0  0  0  0  0  0  0
  113.3980    2.6565   -0.3423 H   0  0  0  0  0  0  0  0  0  0  0  0
  115.3226    4.5330   -0.5641 H   0  0  0  0  0  0  0  0  0  0  0  0
  117.9205    4.4856   -0.5471 H   0  0  0  0  0  0  0  0  0  0  0  0
  120.5186    4.5270   -0.5423 H   0  0  0  0  0  0  0  0  0  0  0  0
  122.4370    2.6438   -0.3225 H   0  0  0  0  0  0  0  0  0  0  0  0
  122.4282   -2.5782    0.2738 H   0  0  0  0  0  0  0  0  0  0  0  0
  120.5036   -4.4543    0.4999 H   0  0  0  0  0  0  0  0  0  0  0  0
  117.9058   -4.4042    0.5058 H   0  0  0  0  0  0  0  0  0  0  0  0
  131.3763    0.0182   -0.0165 Cu  0  0  0  0  0  0  0  0  0  0  0  0
  128.8877   -3.4216    0.2877 C   0  0  0  0  0  0  0  0  0  0  0  0
  127.9220   -2.4755    0.2055 C   0  0  0  0  0  0  0  0  0  0  0  0
  128.5938   -1.2132    0.0909 C   0  0  0  0  0  0  0  0  0  0  0  0
  127.9306    0.0183   -0.0217 C   0  0  0  0  0  0  0  0  0  0  0  0
  128.5944    1.2498   -0.1322 C   0  0  0  0  0  0  0  0  0  0  0  0
  127.9230    2.5122   -0.2485 C   0  0  0  0  0  0  0  0  0  0  0  0
  128.8891    3.4583   -0.3271 C   0  0  0  0  0  0  0  0  0  0  0  0
  130.1467    2.7711   -0.2586 C   0  0  0  0  0  0  0  0  0  0  0  0
  129.9340    1.4319   -0.1417 N   0  0  0  0  0  0  0  0  0  0  0  0
  131.3769    3.4015   -0.3032 C   0  0  0  0  0  0  0  0  0  0  0  0
  132.6070    2.7723   -0.2409 C   0  0  0  0  0  0  0  0  0  0  0  0
  133.8650    3.4607   -0.2896 C   0  0  0  0  0  0  0  0  0  0  0  0
  134.8307    2.5146   -0.2076 C   0  0  0  0  0  0  0  0  0  0  0  0
  134.1587    1.2509   -0.1090 C   0  0  0  0  0  0  0  0  0  0  0  0
  132.8192    1.4326   -0.1300 N   0  0  0  0  0  0  0  0  0  0  0  0
  134.8217    0.0180   -0.0133 C   0  0  0  0  0  0  0  0  0  0  0  0
  134.1582   -1.2146    0.0818 C   0  0  0  0  0  0  0  0  0  0  0  0
  134.8298   -2.4783    0.1830 C   0  0  0  0  0  0  0  0  0  0  0  0
  133.8638   -3.4242    0.2643 C   0  0  0  0  0  0  0  0  0  0  0  0
  132.6060   -2.7357    0.2121 C   0  0  0  0  0  0  0  0  0  0  0  0
  132.8186   -1.3961    0.1003 N   0  0  0  0  0  0  0  0  0  0  0  0
  131.3758   -3.3649    0.2719 C   0  0  0  0  0  0  0  0  0  0  0  0
  130.1456   -2.7345    0.2229 C   0  0  0  0  0  0  0  0  0  0  0  0
  129.9333   -1.3954    0.1048 N   0  0  0  0  0  0  0  0  0  0  0  0
  128.7775   -4.4845    0.3830 H   0  0  0  0  0  0  0  0  0  0  0  0
  126.8564   -2.5984    0.2191 H   0  0  0  0  0  0  0  0  0  0  0  0
  126.8575    2.6352   -0.2656 H   0  0  0  0  0  0  0  0  0  0  0  0
  128.7792    4.5212   -0.4224 H   0  0  0  0  0  0  0  0  0  0  0  0
  131.3770    4.4783   -0.3948 H   0  0  0  0  0  0  0  0  0  0  0  0
  133.9753    4.5244   -0.3754 H   0  0  0  0  0  0  0  0  0  0  0  0
  135.8963    2.6382   -0.2125 H   0  0  0  0  0  0  0  0  0  0  0  0
  135.8954   -2.6019    0.1901 H   0  0  0  0  0  0  0  0  0  0  0  0
  133.9738   -4.4878    0.3517 H   0  0  0  0  0  0  0  0  0  0  0  0
  131.3757   -4.4416    0.3646 H   0  0  0  0  0  0  0  0  0  0  0  0
  2  3  2  0  0  0  0
  3  4  1  0  0  0  0
  4  5  4  0  0  0  0
  5  6  4  0  0  0  0
  6  7  1  0  0  0  0
  7  8  2  0  0  0  0
  8  9  1  0  0  0  0
  1 10  1  0  0  0  0
  6 10  4  0  0  0  0
  9 10  4  0  0  0  0
  9 11  4  0  0  0  0
 11 12  4  0  0  0  0
 12 13  1  0  0  0  0
 13 14  2  0  0  0  0
 14 15  1  0  0  0  0
  1 16  1  0  0  0  0
 12 16  4  0  0  0  0
 15 16  4  0  0  0  0
 15 17  4  0  0  0  0
 17 18  4  0  0  0  0
 18 19  1  0  0  0  0
 19 20  2  0  0  0  0
 20 21  1  0  0  0  0
  1 22  1  0  0  0  0
 18 22  4  0  0  0  0
 21 22  4  0  0  0  0
 21 23  4  0  0  0  0
  2 24  1  0  0  0  0
 23 24  4  0  0  0  0
  1 25  1  0  0  0  0
  4 25  4  0  0  0  0
 24 25  4  0  0  0  0
  2 26  1  0  0  0  0
  3 27  1  0  0  0  0
  7 28  1  0  0  0  0
  8 29  1  0  0  0  0
 11 30  1  0  0  0  0
 13 31  1  0  0  0  0
 14 32  1  0  0  0  0
 17 33  1  0  0  0  0
 19 34  1  0  0  0  0
 20 35  1  0  0  0  0
 23 36  1  0  0  0  0
 38 39  2  0  0  0  0
 39 40  1  0  0  0  0
 40 41  4  0  0  0  0
 41 42  4  0  0  0  0
 42 43  1  0  0  0  0
 43 44  2  0  0  0  0
 44 45  1  0  0  0  0
 37 46  1  0  0  0  0
 42 46  4  0  0  0  0
 45 46  4  0  0  0  0
 45 47  4  0  0  0  0
 47 48  4  0  0  0  0
 48 49  1  0  0  0  0
 49 50  2  0  0  0  0
 50 51  1  0  0  0  0
 37 52  1  0  0  0  0
 48 52  4  0  0  0  0
 51 52  4  0  0  0  0
 51 53  4  0  0  0  0
 53 54  4  0  0  0  0
 54 55  1  0  0  0  0
 55 56  2  0  0  0  0
 56 57  1  0  0  0  0
 37 58  1  0  0  0  0
 54 58  4  0  0  0  0
 57 58  4  0  0  0  0
 57 59  4  0  0  0  0
 38 60  1  0  0  0  0
 59 60  4  0  0  0  0
 37 61  1  0  0  0  0
 40 61  4  0  0  0  0
 60 61  4  0  0  0  0
 38 62  1  0  0  0  0
 39 63  1  0  0  0  0
 43 64  1  0  0  0  0
 44 65  1  0  0  0  0
 47 66  1  0  0  0  0
 49 67  1  0  0  0  0
 50 68  1  0  0  0  0
 53 69  1  0  0  0  0
 55 70  1  0  0  0  0
 56 71  1  0  0  0  0
 59 72  1  0  0  0  0
  5 73  1  0  0  0  0
 73 74  3  0  0  0  0
 74 75  4  0  0  0  0
 75 76  3  0  0  0  0
 77 78  3  0  0  0  0
 78 79  4  0  0  0  0
 79 80  3  0  0  0  0
 81 82  3  0  0  0  0
 82 83  4  0  0  0  0
 83 84  3  0  0  0  0
 85 86  3  0  0  0  0
 86 87  4  0  0  0  0
 87 88  3  0  0  0  0
 89 90  3  0  0  0  0
 90 91  4  0  0  0  0
 91 92  3  0  0  0  0
 93 94  3  0  0  0  0
 94 95  4  0  0  0  0
 95 96  3  0  0  0  0
 97 98  3  0  0  0  0
 98 99  4  0  0  0  0
 41100  1  0  0  0  0
 99100  3  0  0  0  0
102103  2  0  0  0  0
103104  1  0  0  0  0
 76105  1  0  0  0  0
104105  4  0  0  0  0
105106  4  0  0  0  0
106107  1  0  0  0  0
107108  2  0  0  0  0
108109  1  0  0  0  0
101110  1  0  0  0  0
106110  4  0  0  0  0
109110  4  0  0  0  0
109111  4  0  0  0  0
111112  4  0  0  0  0
112113  1  0  0  0  0
113114  2  0  0  0  0
114115  1  0  0  0  0
101116  1  0  0  0  0
112116  4  0  0  0  0
115116  4  0  0  0  0
 77117  1  0  0  0  0
115117  4  0  0  0  0
117118  4  0  0  0  0
118119  1  0  0  0  0
119120  2  0  0  0  0
120121  1  0  0  0  0
101122  1  0  0  0  0
118122  4  0  0  0  0
121122  4  0  0  0  0
121123  4  0  0  0  0
102124  1  0  0  0  0
123124  4  0  0  0  0
101125  1  0  0  0  0
104125  4  0  0  0  0
124125  4  0  0  0  0
102126  1  0  0  0  0
103127  1  0  0  0  0
107128  1  0  0  0  0
108129  1  0  0  0  0
111130  1  0  0  0  0
113131  1  0  0  0  0
114132  1  0  0  0  0
119133  1  0  0  0  0
120134  1  0  0  0  0
123135  1  0  0  0  0
137138  2  0  0  0  0
138139  1  0  0  0  0
 80140  1  0  0  0  0
139140  4  0  0  0  0
140141  4  0  0  0  0
141142  1  0  0  0  0
142143  2  0  0  0  0
143144  1  0  0  0  0
136145  1  0  0  0  0
141145  4  0  0  0  0
144145  4  0  0  0  0
144146  4  0  0  0  0
146147  4  0  0  0  0
147148  1  0  0  0  0
148149  2  0  0  0  0
149150  1  0  0  0  0
136151  1  0  0  0  0
147151  4  0  0  0  0
150151  4  0  0  0  0
 81152  1  0  0  0  0
150152  4  0  0  0  0
152153  4  0  0  0  0
153154  1  0  0  0  0
154155  2  0  0  0  0
155156  1  0  0  0  0
136157  1  0  0  0  0
153157  4  0  0  0  0
156157  4  0  0  0  0
156158  4  0  0  0  0
137159  1  0  0  0  0
158159  4  0  0  0  0
136160  1  0  0  0  0
139160  4  0  0  0  0
159160  4  0  0  0  0
137161  1  0  0  0  0
138162  1  0  0  0  0
142163  1  0  0  0  0
143164  1  0  0  0  0
146165  1  0  0  0  0
148166  1  0  0  0  0
149167  1  0  0  0  0
154168  1  0  0  0  0
155169  1  0  0  0  0
158170  1  0  0  0  0
172173  2  0  0  0  0
173174  1  0  0  0  0
 84175  1  0  0  0  0
174175  4  0  0  0  0
175176  4  0  0  0  0
176177  1  0  0  0  0
177178  2  0  0  0  0
178179  1  0  0  0  0
171180  1  0  0  0  0
176180  4  0  0  0  0
179180  4  0  0  0  0
179181  4  0  0  0  0
181182  4  0  0  0  0
182183  1  0  0  0  0
183184  2  0  0  0  0
184185  1  0  0  0  0
171186  1  0  0  0  0
182186  4  0  0  0  0
185186  4  0  0  0  0
 85187  1  0  0  0  0
185187  4  0  0  0  0
187188  4  0  0  0  0
188189  1  0  0  0  0
189190  2  0  0  0  0
190191  1  0  0  0  0
171192  1  0  0  0  0
188192  4  0  0  0  0
191192  4  0  0  0  0
191193  4  0  0  0  0
172194  1  0  0  0  0
193194  4  0  0  0  0
171195  1  0  0  0  0
174195  4  0  0  0  0
194195  4  0  0  0  0
172196  1  0  0  0  0
173197  1  0  0  0  0
177198  1  0  0  0  0
178199  1  0  0  0  0
181200  1  0  0  0  0
183201  1  0  0  0  0
184202  1  0  0  0  0
189203  1  0  0  0  0
190204  1  0  0  0  0
193205  1  0  0  0  0
207208  2  0  0  0  0
208209  1  0  0  0  0
 88210  1  0  0  0  0
209210  4  0  0  0  0
210211  4  0  0  0  0
211212  1  0  0  0  0
212213  2  0  0  0  0
213214  1  0  0  0  0
206215  1  0  0  0  0
211215  4  0  0  0  0
214215  4  0  0  0  0
214216  4  0  0  0  0
216217  4  0  0  0  0
217218  1  0  0  0  0
218219  2  0  0  0  0
219220  1  0  0  0  0
206221  1  0  0  0  0
217221  4  0  0  0  0
220221  4  0  0  0  0
 89222  1  0  0  0  0
220222  4  0  0  0  0
222223  4  0  0  0  0
223224  1  0  0  0  0
224225  2  0  0  0  0
225226  1  0  0  0  0
206227  1  0  0  0  0
223227  4  0  0  0  0
226227  4  0  0  0  0
226228  4  0  0  0  0
207229  1  0  0  0  0
228229  4  0  0  0  0
206230  1  0  0  0  0
209230  4  0  0  0  0
229230  4  0  0  0  0
207231  1  0  0  0  0
208232  1  0  0  0  0
212233  1  0  0  0  0
213234  1  0  0  0  0
216235  1  0  0  0  0
218236  1  0  0  0  0
219237  1  0  0  0  0
224238  1  0  0  0  0
225239  1  0  0  0  0
228240  1  0  0  0  0
242243  2  0  0  0  0
243244  1  0  0  0  0
 92245  1  0  0  0  0
244245  4  0  0  0  0
245246  4  0  0  0  0
246247  1  0  0  0  0
247248  2  0  0  0  0
248249  1  0  0  0  0
241250  1  0  0  0  0
246250  4  0  0  0  0
249250  4  0  0  0  0
249251  4  0  0  0  0
251252  4  0  0  0  0
252253  1  0  0  0  0
253254  2  0  0  0  0
254255  1  0  0  0  0
241256  1  0  0  0  0
252256  4  0  0  0  0
255256  4  0  0  0  0
 93257  1  0  0  0  0
255257  4  0  0  0  0
257258  4  0  0  0  0
258259  1  0  0  0  0
259260  2  0  0  0  0
260261  1  0  0  0  0
241262  1  0  0  0  0
258262  4  0  0  0  0
261262  4  0  0  0  0
261263  4  0  0  0  0
242264  1  0  0  0  0
263264  4  0  0  0  0
241265  1  0  0  0  0
244265  4  0  0  0  0
264265  4  0  0  0  0
242266  1  0  0  0  0
243267  1  0  0  0  0
247268  1  0  0  0  0
248269  1  0  0  0  0
251270  1  0  0  0  0
253271  1  0  0  0  0
254272  1  0  0  0  0
259273  1  0  0  0  0
260274  1  0  0  0  0
263275  1  0  0  0  0
277278  2  0  0  0  0
278279  1  0  0  0  0
 96280  1  0  0  0  0
279280  4  0  0  0  0
280281  4  0  0  0  0
281282  1  0  0  0  0
282283  2  0  0  0  0
283284  1  0  0  0  0
276285  1  0  0  0  0
281285  4  0  0  0  0
284285  4  0  0  0  0
284286  4  0  0  0  0
286287  4  0  0  0  0
287288  1  0  0  0  0
288289  2  0  0  0  0
289290  1  0  0  0  0
276291  1  0  0  0  0
287291  4  0  0  0  0
290291  4  0  0  0  0
 97292  1  0  0  0  0
290292  4  0  0  0  0
292293  4  0  0  0  0
293294  1  0  0  0  0
294295  2  0  0  0  0
295296  1  0  0  0  0
276297  1  0  0  0  0
293297  4  0  0  0  0
296297  4  0  0  0  0
296298  4  0  0  0  0
277299  1  0  0  0  0
298299  4  0  0  0  0
276300  1  0  0  0  0
279300  4  0  0  0  0
299300  4  0  0  0  0
277301  1  0  0  0  0
278302  1  0  0  0  0
282303  1  0  0  0  0
283304  1  0  0  0  0
286305  1  0  0  0  0
288306  1  0  0  0  0
289307  1  0  0  0  0
294308  1  0  0  0  0
295309  1  0  0  0  0
298310  1  0  0  0  0
M  END
