119

Cu 11.912832 -0.004299 -0.007638
C 14.437857 -3.431632 0.018623
C 15.391294 -2.469881 0.018110
C 14.703330 -1.210772 0.008216
C 15.351269 0.033715 0.001300
C 14.676196 1.263442 -0.006959
C 15.336393 2.537344 -0.012213
C 14.362103 3.477942 -0.015564
C 13.110011 2.776603 -0.012818
N 13.334732 1.434399 -0.008256
C 11.873984 3.398005 -0.013253
C 10.653064 2.747223 -0.012489
C 9.380634 3.416607 -0.013265
C 8.432997 2.451529 -0.016479
C 9.125332 1.191292 -0.017547
N 10.465544 1.403183 -0.013915
C 8.497460 -0.042019 -0.024456
C 9.152281 -1.261255 -0.024418
C 8.487944 -2.536544 -0.032913
C 9.456614 -3.480477 -0.025241
C 10.713927 -2.783093 -0.012440
N 10.496794 -1.443514 -0.013382
C 11.948871 -3.406626 0.000413
C 13.170774 -2.757988 0.008466
N 13.365953 -1.411141 0.003458
H 14.562034 -4.497202 0.024624
H 16.458290 -2.580767 0.023449
H 16.400759 2.671392 -0.012641
H 14.462763 4.545967 -0.019783
H 11.862433 4.478470 -0.014800
H 9.253758 4.482065 -0.011838
H 7.365376 2.558865 -0.017955
H 7.417252 -0.053893 -0.030260
H 7.422986 -2.667514 -0.043527
H 9.353333 -4.548543 -0.028127
H 11.961320 -4.487078 0.003027
Cu 43.937984 0.024865 -0.005953
C 41.424364 3.402589 0.623748
C 40.467769 2.460052 0.448949
C 41.151556 1.219627 0.219992
C 40.499552 -0.002778 -0.001076
C 41.170452 -1.214819 -0.221947
C 40.505926 -2.466433 -0.446859
C 41.476994 -3.394264 -0.620530
C 42.731426 -2.707436 -0.501401
N 42.511296 -1.386496 -0.259214
C 43.965246 -3.321842 -0.619613
C 45.188314 -2.684721 -0.508906
C 46.458494 -3.346450 -0.635360
C 47.409360 -2.399253 -0.467814
C 46.721270 -1.157645 -0.238634
N 45.380371 -1.362908 -0.269099
C 47.353247 0.054348 -0.021895
C 46.702582 1.254948 0.202660
C 47.371279 2.507750 0.428390
C 46.405840 3.437662 0.608918
C 45.146117 2.754385 0.492560
N 45.358674 1.436784 0.247016
C 43.913295 3.370369 0.614363
C 42.689194 2.736154 0.499953
N 42.489582 1.412390 0.255168
H 41.303763 4.450778 0.817703
H 39.401144 2.572608 0.469119
H 39.441074 -2.595763 -0.464988
H 41.372619 -4.444809 -0.811523
H 43.973091 -4.384710 -0.814001
H 46.581786 -4.395063 -0.826624
H 48.476625 -2.507584 -0.492322
H 48.433480 0.063774 -0.027575
H 48.436695 2.634656 0.442234
H 46.512801 4.487679 0.802296
H 43.904574 4.432555 0.812410
C 16.747924 0.047742 0.002309
C 17.967972 0.049231 0.002465
C 19.304052 0.052285 0.001324
C 20.528473 0.059096 0.006189
C 21.864383 0.056586 0.005831
C 23.084552 0.058237 0.002036
C 32.766068 -0.013046 -0.008586
C 33.986271 -0.016165 -0.005308
C 35.322260 -0.018260 -0.003416
C 36.546679 -0.017834 -0.000753
C 37.882820 -0.014626 -0.000713
C 39.102778 -0.012850 -0.000805
Cu 27.925256 0.021651 -0.012473
C 25.411880 -3.389468 0.398428
C 24.453068 -2.438107 0.298012
C 25.134305 -1.184992 0.142705
C 24.480464 0.048459 -0.002577
C 25.152375 1.271249 -0.153532
C 24.489677 2.534355 -0.307680
C 25.462469 3.470245 -0.418681
C 26.715340 2.776228 -0.331201
N 26.493031 1.443060 -0.172671
C 27.950387 3.395937 -0.393756
C 29.176014 2.760180 -0.310627
C 30.439003 3.438353 -0.372540
C 31.397726 2.487941 -0.262843
C 30.716337 1.231740 -0.135573
N 29.378445 1.422391 -0.164706
C 31.370071 -0.003927 -0.011114
C 30.698173 -1.230057 0.109513
C 31.360786 -2.496715 0.231544
C 30.387985 -3.433470 0.334927
C 29.135231 -2.736280 0.276077
N 29.357567 -1.401036 0.136476
C 27.900299 -3.353746 0.358765
C 26.674770 -2.714736 0.304795
N 26.472170 -1.377712 0.152410
H 25.293602 -4.448285 0.524193
H 23.386721 -2.552577 0.323696
H 23.425033 2.665253 -0.326150
H 25.359917 4.530353 -0.547223
H 27.958473 4.469640 -0.516474
H 30.557382 4.498632 -0.484822
H 32.464089 2.604741 -0.266361
H 32.425385 -2.629235 0.235264
H 30.490491 -4.496108 0.441187
H 27.892209 -4.428015 0.476418
