
  xtb     11212114423D
 xtb: 6.4.1 (bd6e46d)
310373  0     0  0            999 V2000
   50.0198    0.0079   -0.0134 Fe  0  0  0  0  0  0  0  0  0  0  0  0
   52.5258   -3.3759    0.0198 C   0  0  0  0  0  0  0  0  0  0  0  0
   53.5161   -2.4529    0.0190 C   0  0  0  0  0  0  0  0  0  0  0  0
   52.8731   -1.1748    0.0069 C   0  0  0  0  0  0  0  0  0  0  0  0
   53.5468    0.0505    0.0001 C   0  0  0  0  0  0  0  0  0  0  0  0
   52.8440    1.2592   -0.0086 C   0  0  0  0  0  0  0  0  0  0  0  0
   53.4559    2.5526   -0.0112 C   0  0  0  0  0  0  0  0  0  0  0  0
   52.4436    3.4514   -0.0142 C   0  0  0  0  0  0  0  0  0  0  0  0
   51.2207    2.7013   -0.0146 C   0  0  0  0  0  0  0  0  0  0  0  0
   51.4868    1.3571   -0.0113 N   0  0  0  0  0  0  0  0  0  0  0  0
   49.9774    3.3030   -0.0185 C   0  0  0  0  0  0  0  0  0  0  0  0
   48.7506    2.6689   -0.0236 C   0  0  0  0  0  0  0  0  0  0  0  0
   47.5058    3.3865   -0.0310 C   0  0  0  0  0  0  0  0  0  0  0  0
   46.5200    2.4614   -0.0383 C   0  0  0  0  0  0  0  0  0  0  0  0
   47.1654    1.1806   -0.0346 C   0  0  0  0  0  0  0  0  0  0  0  0
   48.5229    1.3206   -0.0253 N   0  0  0  0  0  0  0  0  0  0  0  0
   46.5102   -0.0346   -0.0394 C   0  0  0  0  0  0  0  0  0  0  0  0
   47.1946   -1.2337   -0.0324 C   0  0  0  0  0  0  0  0  0  0  0  0
   46.5804   -2.5297   -0.0345 C   0  0  0  0  0  0  0  0  0  0  0  0
   47.5882   -3.4307   -0.0224 C   0  0  0  0  0  0  0  0  0  0  0  0
   48.8152   -2.6832   -0.0134 C   0  0  0  0  0  0  0  0  0  0  0  0
   48.5550   -1.3408   -0.0201 N   0  0  0  0  0  0  0  0  0  0  0  0
   50.0569   -3.2873    0.0006 C   0  0  0  0  0  0  0  0  0  0  0  0
   51.2851   -2.6557    0.0074 C   0  0  0  0  0  0  0  0  0  0  0  0
   51.5187   -1.3055    0.0005 N   0  0  0  0  0  0  0  0  0  0  0  0
   52.6080   -4.4456    0.0276 H   0  0  0  0  0  0  0  0  0  0  0  0
   54.5785   -2.6005    0.0259 H   0  0  0  0  0  0  0  0  0  0  0  0
   54.5145    2.7257   -0.0097 H   0  0  0  0  0  0  0  0  0  0  0  0
   52.4999    4.5228   -0.0161 H   0  0  0  0  0  0  0  0  0  0  0  0
   49.9643    4.3838   -0.0192 H   0  0  0  0  0  0  0  0  0  0  0  0
   47.4219    4.4564   -0.0309 H   0  0  0  0  0  0  0  0  0  0  0  0
   45.4574    2.6090   -0.0454 H   0  0  0  0  0  0  0  0  0  0  0  0
   45.4313   -0.0477   -0.0480 H   0  0  0  0  0  0  0  0  0  0  0  0
   45.5216   -2.7030   -0.0438 H   0  0  0  0  0  0  0  0  0  0  0  0
   47.5302   -4.5023   -0.0198 H   0  0  0  0  0  0  0  0  0  0  0  0
   50.0700   -4.3681    0.0058 H   0  0  0  0  0  0  0  0  0  0  0  0
  145.4225    0.0425   -0.0130 Fe  0  0  0  0  0  0  0  0  0  0  0  0
  142.9263    3.3811    0.5816 C   0  0  0  0  0  0  0  0  0  0  0  0
  141.9334    2.4751    0.4207 C   0  0  0  0  0  0  0  0  0  0  0  0
  142.5728    1.2144    0.1992 C   0  0  0  0  0  0  0  0  0  0  0  0
  141.8958    0.0083   -0.0052 C   0  0  0  0  0  0  0  0  0  0  0  0
  142.5949   -1.1849   -0.2106 C   0  0  0  0  0  0  0  0  0  0  0  0
  141.9789   -2.4582   -0.4270 C   0  0  0  0  0  0  0  0  0  0  0  0
  142.9885   -3.3455   -0.5884 C   0  0  0  0  0  0  0  0  0  0  0  0
  144.2137   -2.6084   -0.4706 C   0  0  0  0  0  0  0  0  0  0  0  0
  143.9517   -1.2837   -0.2377 N   0  0  0  0  0  0  0  0  0  0  0  0
  145.4551   -3.2024   -0.5880 C   0  0  0  0  0  0  0  0  0  0  0  0
  146.6836   -2.5794   -0.4901 C   0  0  0  0  0  0  0  0  0  0  0  0
  147.9263   -3.2872   -0.6290 C   0  0  0  0  0  0  0  0  0  0  0  0
  148.9147   -2.3781   -0.4740 C   0  0  0  0  0  0  0  0  0  0  0  0
  148.2731   -1.1167   -0.2406 C   0  0  0  0  0  0  0  0  0  0  0  0
  146.9152   -1.2526   -0.2540 N   0  0  0  0  0  0  0  0  0  0  0  0
  148.9320    0.0776   -0.0271 C   0  0  0  0  0  0  0  0  0  0  0  0
  148.2512    1.2584    0.1928 C   0  0  0  0  0  0  0  0  0  0  0  0
  148.8694    2.5320    0.4232 C   0  0  0  0  0  0  0  0  0  0  0  0
  147.8643    3.4208    0.5886 C   0  0  0  0  0  0  0  0  0  0  0  0
  146.6349    2.6885    0.4584 C   0  0  0  0  0  0  0  0  0  0  0  0
  146.8911    1.3670    0.2177 N   0  0  0  0  0  0  0  0  0  0  0  0
  145.3950    3.2866    0.5669 C   0  0  0  0  0  0  0  0  0  0  0  0
  144.1649    2.6684    0.4557 C   0  0  0  0  0  0  0  0  0  0  0  0
  143.9276    1.3395    0.2204 N   0  0  0  0  0  0  0  0  0  0  0  0
  142.8470    4.4347    0.7685 H   0  0  0  0  0  0  0  0  0  0  0  0
  140.8713    2.6233    0.4477 H   0  0  0  0  0  0  0  0  0  0  0  0
  140.9198   -2.6269   -0.4486 H   0  0  0  0  0  0  0  0  0  0  0  0
  142.9289   -4.4011   -0.7709 H   0  0  0  0  0  0  0  0  0  0  0  0
  145.4650   -4.2667   -0.7764 H   0  0  0  0  0  0  0  0  0  0  0  0
  148.0070   -4.3402   -0.8195 H   0  0  0  0  0  0  0  0  0  0  0  0
  149.9769   -2.5247   -0.5099 H   0  0  0  0  0  0  0  0  0  0  0  0
  150.0109    0.0884   -0.0316 H   0  0  0  0  0  0  0  0  0  0  0  0
  149.9287    2.6999    0.4505 H   0  0  0  0  0  0  0  0  0  0  0  0
  147.9255    4.4748    0.7806 H   0  0  0  0  0  0  0  0  0  0  0  0
  145.3850    4.3504    0.7580 H   0  0  0  0  0  0  0  0  0  0  0  0
   54.9435    0.0657    0.0011 C   0  0  0  0  0  0  0  0  0  0  0  0
   56.1614    0.0722    0.0002 C   0  0  0  0  0  0  0  0  0  0  0  0
   57.5040    0.0787    0.0000 C   0  0  0  0  0  0  0  0  0  0  0  0
   58.7220    0.0789   -0.0013 C   0  0  0  0  0  0  0  0  0  0  0  0
   68.5778    0.0490   -0.0258 C   0  0  0  0  0  0  0  0  0  0  0  0
   69.7959    0.0484   -0.0280 C   0  0  0  0  0  0  0  0  0  0  0  0
   71.1381    0.0484   -0.0261 C   0  0  0  0  0  0  0  0  0  0  0  0
   72.3562    0.0462   -0.0221 C   0  0  0  0  0  0  0  0  0  0  0  0
   82.2085    0.0437   -0.0181 C   0  0  0  0  0  0  0  0  0  0  0  0
   83.4265    0.0468   -0.0205 C   0  0  0  0  0  0  0  0  0  0  0  0
   84.7684    0.0465   -0.0194 C   0  0  0  0  0  0  0  0  0  0  0  0
   85.9863    0.0465   -0.0196 C   0  0  0  0  0  0  0  0  0  0  0  0
   95.8343    0.0437   -0.0224 C   0  0  0  0  0  0  0  0  0  0  0  0
   97.0521    0.0454   -0.0225 C   0  0  0  0  0  0  0  0  0  0  0  0
   98.3938    0.0455   -0.0209 C   0  0  0  0  0  0  0  0  0  0  0  0
   99.6116    0.0469   -0.0212 C   0  0  0  0  0  0  0  0  0  0  0  0
  109.4593    0.0429   -0.0219 C   0  0  0  0  0  0  0  0  0  0  0  0
  110.6772    0.0451   -0.0182 C   0  0  0  0  0  0  0  0  0  0  0  0
  112.0190    0.0480   -0.0189 C   0  0  0  0  0  0  0  0  0  0  0  0
  113.2369    0.0492   -0.0222 C   0  0  0  0  0  0  0  0  0  0  0  0
  123.0881    0.0502   -0.0206 C   0  0  0  0  0  0  0  0  0  0  0  0
  124.3062    0.0478   -0.0229 C   0  0  0  0  0  0  0  0  0  0  0  0
  125.6483    0.0438   -0.0256 C   0  0  0  0  0  0  0  0  0  0  0  0
  126.8663    0.0385   -0.0239 C   0  0  0  0  0  0  0  0  0  0  0  0
  136.7206   -0.0087   -0.0074 C   0  0  0  0  0  0  0  0  0  0  0  0
  137.9385   -0.0114   -0.0069 C   0  0  0  0  0  0  0  0  0  0  0  0
  139.2812   -0.0096   -0.0076 C   0  0  0  0  0  0  0  0  0  0  0  0
  140.4989   -0.0029   -0.0058 C   0  0  0  0  0  0  0  0  0  0  0  0
   63.6502    0.0642   -0.0154 Fe  0  0  0  0  0  0  0  0  0  0  0  0
   61.1729   -3.3205    0.3654 C   0  0  0  0  0  0  0  0  0  0  0  0
   60.1736   -2.4125    0.2663 C   0  0  0  0  0  0  0  0  0  0  0  0
   60.8042   -1.1361    0.1246 C   0  0  0  0  0  0  0  0  0  0  0  0
   60.1182    0.0760   -0.0053 C   0  0  0  0  0  0  0  0  0  0  0  0
   60.8111    1.2835   -0.1392 C   0  0  0  0  0  0  0  0  0  0  0  0
   60.1881    2.5641   -0.2779 C   0  0  0  0  0  0  0  0  0  0  0  0
   61.1930    3.4653   -0.3834 C   0  0  0  0  0  0  0  0  0  0  0  0
   62.4217    2.7291   -0.3081 C   0  0  0  0  0  0  0  0  0  0  0  0
   62.1667    1.3910   -0.1578 N   0  0  0  0  0  0  0  0  0  0  0  0
   63.6598    3.3360   -0.3838 C   0  0  0  0  0  0  0  0  0  0  0  0
   64.8943    2.7202   -0.3211 C   0  0  0  0  0  0  0  0  0  0  0  0
   66.1273    3.4475   -0.4102 C   0  0  0  0  0  0  0  0  0  0  0  0
   67.1268    2.5396   -0.3104 C   0  0  0  0  0  0  0  0  0  0  0  0
   66.4961    1.2641   -0.1611 C   0  0  0  0  0  0  0  0  0  0  0  0
   65.1412    1.3808   -0.1692 N   0  0  0  0  0  0  0  0  0  0  0  0
   67.1820    0.0528   -0.0232 C   0  0  0  0  0  0  0  0  0  0  0  0
   66.4891   -1.1541    0.1168 C   0  0  0  0  0  0  0  0  0  0  0  0
   67.1121   -2.4339    0.2620 C   0  0  0  0  0  0  0  0  0  0  0  0
   66.1074   -3.3354    0.3657 C   0  0  0  0  0  0  0  0  0  0  0  0
   64.8786   -2.6000    0.2831 C   0  0  0  0  0  0  0  0  0  0  0  0
   65.1335   -1.2621    0.1308 N   0  0  0  0  0  0  0  0  0  0  0  0
   63.6405   -3.2076    0.3520 C   0  0  0  0  0  0  0  0  0  0  0  0
   62.4060   -2.5925    0.2836 C   0  0  0  0  0  0  0  0  0  0  0  0
   62.1591   -1.2526    0.1353 N   0  0  0  0  0  0  0  0  0  0  0  0
   61.1013   -4.3845    0.4831 H   0  0  0  0  0  0  0  0  0  0  0  0
   59.1126   -2.5692    0.2853 H   0  0  0  0  0  0  0  0  0  0  0  0
   59.1281    2.7278   -0.2909 H   0  0  0  0  0  0  0  0  0  0  0  0
   61.1278    4.5297   -0.5015 H   0  0  0  0  0  0  0  0  0  0  0  0
   63.6631    4.4101   -0.5051 H   0  0  0  0  0  0  0  0  0  0  0  0
   66.1990    4.5110   -0.5324 H   0  0  0  0  0  0  0  0  0  0  0  0
   68.1877    2.6959   -0.3330 H   0  0  0  0  0  0  0  0  0  0  0  0
   68.1722   -2.5970    0.2793 H   0  0  0  0  0  0  0  0  0  0  0  0
   66.1726   -4.3994    0.4870 H   0  0  0  0  0  0  0  0  0  0  0  0
   63.6372   -4.2818    0.4726 H   0  0  0  0  0  0  0  0  0  0  0  0
   77.2827    0.0446   -0.0225 Fe  0  0  0  0  0  0  0  0  0  0  0  0
   74.8148   -3.3455    0.3713 C   0  0  0  0  0  0  0  0  0  0  0  0
   73.8132   -2.4405    0.2666 C   0  0  0  0  0  0  0  0  0  0  0  0
   74.4408   -1.1634    0.1179 C   0  0  0  0  0  0  0  0  0  0  0  0
   73.7520    0.0458   -0.0227 C   0  0  0  0  0  0  0  0  0  0  0  0
   74.4415    1.2548   -0.1624 C   0  0  0  0  0  0  0  0  0  0  0  0
   73.8148    2.5325   -0.3099 C   0  0  0  0  0  0  0  0  0  0  0  0
   74.8170    3.4367   -0.4148 C   0  0  0  0  0  0  0  0  0  0  0  0
   76.0478    2.7051   -0.3303 C   0  0  0  0  0  0  0  0  0  0  0  0
   75.7968    1.3667   -0.1755 N   0  0  0  0  0  0  0  0  0  0  0  0
   77.2841    3.3163   -0.4014 C   0  0  0  0  0  0  0  0  0  0  0  0
   78.5200    2.7047   -0.3302 C   0  0  0  0  0  0  0  0  0  0  0  0
   79.7515    3.4352   -0.4143 C   0  0  0  0  0  0  0  0  0  0  0  0
   80.7528    2.5301   -0.3083 C   0  0  0  0  0  0  0  0  0  0  0  0
   80.1247    1.2531   -0.1607 C   0  0  0  0  0  0  0  0  0  0  0  0
   78.7697    1.3662   -0.1747 N   0  0  0  0  0  0  0  0  0  0  0  0
   80.8130    0.0437   -0.0207 C   0  0  0  0  0  0  0  0  0  0  0  0
   80.1240   -1.1655    0.1178 C   0  0  0  0  0  0  0  0  0  0  0  0
   80.7512   -2.4431    0.2644 C   0  0  0  0  0  0  0  0  0  0  0  0
   79.7493   -3.3478    0.3680 C   0  0  0  0  0  0  0  0  0  0  0  0
   78.5183   -2.6164    0.2844 C   0  0  0  0  0  0  0  0  0  0  0  0
   78.7689   -1.2779    0.1306 N   0  0  0  0  0  0  0  0  0  0  0  0
   77.2819   -3.2271    0.3557 C   0  0  0  0  0  0  0  0  0  0  0  0
   76.0461   -2.6149    0.2859 C   0  0  0  0  0  0  0  0  0  0  0  0
   75.7960   -1.2763    0.1307 N   0  0  0  0  0  0  0  0  0  0  0  0
   74.7458   -4.4090    0.4949 H   0  0  0  0  0  0  0  0  0  0  0  0
   72.7526   -2.5997    0.2855 H   0  0  0  0  0  0  0  0  0  0  0  0
   72.7544    2.6926   -0.3281 H   0  0  0  0  0  0  0  0  0  0  0  0
   74.7489    4.5003   -0.5378 H   0  0  0  0  0  0  0  0  0  0  0  0
   77.2843    4.3900   -0.5261 H   0  0  0  0  0  0  0  0  0  0  0  0
   79.8209    4.4987   -0.5379 H   0  0  0  0  0  0  0  0  0  0  0  0
   81.8134    2.6891   -0.3261 H   0  0  0  0  0  0  0  0  0  0  0  0
   81.8118   -2.6027    0.2825 H   0  0  0  0  0  0  0  0  0  0  0  0
   79.8180   -4.4115    0.4898 H   0  0  0  0  0  0  0  0  0  0  0  0
   77.2813   -4.3009    0.4797 H   0  0  0  0  0  0  0  0  0  0  0  0
   90.9105    0.0452   -0.0211 Fe  0  0  0  0  0  0  0  0  0  0  0  0
   88.4424   -3.3455    0.3709 C   0  0  0  0  0  0  0  0  0  0  0  0
   87.4414   -2.4400    0.2656 C   0  0  0  0  0  0  0  0  0  0  0  0
   88.0699   -1.1631    0.1190 C   0  0  0  0  0  0  0  0  0  0  0  0
   87.3818    0.0466   -0.0198 C   0  0  0  0  0  0  0  0  0  0  0  0
   88.0704    1.2559   -0.1594 C   0  0  0  0  0  0  0  0  0  0  0  0
   87.4428    2.5332   -0.3062 C   0  0  0  0  0  0  0  0  0  0  0  0
   88.4445    3.4378   -0.4128 C   0  0  0  0  0  0  0  0  0  0  0  0
   89.6757    2.7067   -0.3300 C   0  0  0  0  0  0  0  0  0  0  0  0
   89.4255    1.3683   -0.1741 N   0  0  0  0  0  0  0  0  0  0  0  0
   90.9117    3.3180   -0.4038 C   0  0  0  0  0  0  0  0  0  0  0  0
   92.1473    2.7056   -0.3344 C   0  0  0  0  0  0  0  0  0  0  0  0
   93.3791    3.4351   -0.4223 C   0  0  0  0  0  0  0  0  0  0  0  0
   94.3800    2.5295   -0.3168 C   0  0  0  0  0  0  0  0  0  0  0  0
   93.7512    1.2533   -0.1652 C   0  0  0  0  0  0  0  0  0  0  0  0
   92.3964    1.3672   -0.1772 N   0  0  0  0  0  0  0  0  0  0  0  0
   94.4389    0.0440   -0.0219 C   0  0  0  0  0  0  0  0  0  0  0  0
   93.7505   -1.1648    0.1216 C   0  0  0  0  0  0  0  0  0  0  0  0
   94.3785   -2.4414    0.2733 C   0  0  0  0  0  0  0  0  0  0  0  0
   93.3771   -3.3463    0.3794 C   0  0  0  0  0  0  0  0  0  0  0  0
   92.1457   -2.6160    0.2917 C   0  0  0  0  0  0  0  0  0  0  0  0
   92.3956   -1.2778    0.1341 N   0  0  0  0  0  0  0  0  0  0  0  0
   90.9096   -3.2275    0.3614 C   0  0  0  0  0  0  0  0  0  0  0  0
   89.6741   -2.6153    0.2880 C   0  0  0  0  0  0  0  0  0  0  0  0
   89.4248   -1.2766    0.1329 N   0  0  0  0  0  0  0  0  0  0  0  0
   88.3729   -4.4091    0.4934 H   0  0  0  0  0  0  0  0  0  0  0  0
   86.3807   -2.5987    0.2829 H   0  0  0  0  0  0  0  0  0  0  0  0
   86.3823    2.6927   -0.3231 H   0  0  0  0  0  0  0  0  0  0  0  0
   88.3757    4.5014   -0.5361 H   0  0  0  0  0  0  0  0  0  0  0  0
   90.9119    4.3916   -0.5294 H   0  0  0  0  0  0  0  0  0  0  0  0
   93.4489    4.4984   -0.5477 H   0  0  0  0  0  0  0  0  0  0  0  0
   95.4407    2.6877   -0.3369 H   0  0  0  0  0  0  0  0  0  0  0  0
   95.4391   -2.6003    0.2931 H   0  0  0  0  0  0  0  0  0  0  0  0
   93.4462   -4.4096    0.5054 H   0  0  0  0  0  0  0  0  0  0  0  0
   90.9091   -4.3011    0.4868 H   0  0  0  0  0  0  0  0  0  0  0  0
  104.5353    0.0449   -0.0209 Fe  0  0  0  0  0  0  0  0  0  0  0  0
  102.0664   -3.3440    0.3865 C   0  0  0  0  0  0  0  0  0  0  0  0
  101.0656   -2.4387    0.2779 C   0  0  0  0  0  0  0  0  0  0  0  0
  101.6945   -1.1628    0.1244 C   0  0  0  0  0  0  0  0  0  0  0  0
  101.0069    0.0463   -0.0210 C   0  0  0  0  0  0  0  0  0  0  0  0
  101.6955    1.2549   -0.1660 C   0  0  0  0  0  0  0  0  0  0  0  0
  101.0676    2.5314   -0.3192 C   0  0  0  0  0  0  0  0  0  0  0  0
  102.0691    3.4359   -0.4275 C   0  0  0  0  0  0  0  0  0  0  0  0
  103.3004    2.7056   -0.3397 C   0  0  0  0  0  0  0  0  0  0  0  0
  103.0504    1.3677   -0.1794 N   0  0  0  0  0  0  0  0  0  0  0  0
  104.5365    3.3166   -0.4127 C   0  0  0  0  0  0  0  0  0  0  0  0
  105.7720    2.7044   -0.3394 C   0  0  0  0  0  0  0  0  0  0  0  0
  107.0037    3.4339   -0.4268 C   0  0  0  0  0  0  0  0  0  0  0  0
  108.0047    2.5287   -0.3187 C   0  0  0  0  0  0  0  0  0  0  0  0
  107.3760    1.2526   -0.1661 C   0  0  0  0  0  0  0  0  0  0  0  0
  106.0211    1.3662   -0.1794 N   0  0  0  0  0  0  0  0  0  0  0  0
  108.0639    0.0434   -0.0217 C   0  0  0  0  0  0  0  0  0  0  0  0
  107.3750   -1.1652    0.1231 C   0  0  0  0  0  0  0  0  0  0  0  0
  108.0027   -2.4418    0.2757 C   0  0  0  0  0  0  0  0  0  0  0  0
  107.0010   -3.3462    0.3843 C   0  0  0  0  0  0  0  0  0  0  0  0
  105.7699   -2.6156    0.2974 C   0  0  0  0  0  0  0  0  0  0  0  0
  106.0200   -1.2777    0.1371 N   0  0  0  0  0  0  0  0  0  0  0  0
  104.5338   -3.2267    0.3713 C   0  0  0  0  0  0  0  0  0  0  0  0
  103.2982   -2.6147    0.2985 C   0  0  0  0  0  0  0  0  0  0  0  0
  103.0494   -1.2766    0.1378 N   0  0  0  0  0  0  0  0  0  0  0  0
  101.9965   -4.4070    0.5143 H   0  0  0  0  0  0  0  0  0  0  0  0
  100.0049   -2.5968    0.2973 H   0  0  0  0  0  0  0  0  0  0  0  0
  100.0070    2.6904   -0.3384 H   0  0  0  0  0  0  0  0  0  0  0  0
  102.0001    4.4990   -0.5550 H   0  0  0  0  0  0  0  0  0  0  0  0
  104.5371    4.3899   -0.5412 H   0  0  0  0  0  0  0  0  0  0  0  0
  107.0733    4.4970   -0.5538 H   0  0  0  0  0  0  0  0  0  0  0  0
  109.0653    2.6871   -0.3379 H   0  0  0  0  0  0  0  0  0  0  0  0
  109.0632   -2.6011    0.2943 H   0  0  0  0  0  0  0  0  0  0  0  0
  107.0698   -4.4093    0.5115 H   0  0  0  0  0  0  0  0  0  0  0  0
  104.5335   -4.3000    0.5000 H   0  0  0  0  0  0  0  0  0  0  0  0
  118.1622    0.0500   -0.0212 Fe  0  0  0  0  0  0  0  0  0  0  0  0
  115.6951   -3.3401    0.3846 C   0  0  0  0  0  0  0  0  0  0  0  0
  114.6934   -2.4356    0.2766 C   0  0  0  0  0  0  0  0  0  0  0  0
  115.3211   -1.1590    0.1240 C   0  0  0  0  0  0  0  0  0  0  0  0
  114.6324    0.0496   -0.0209 C   0  0  0  0  0  0  0  0  0  0  0  0
  115.3207    1.2584   -0.1660 C   0  0  0  0  0  0  0  0  0  0  0  0
  114.6928    2.5347   -0.3197 C   0  0  0  0  0  0  0  0  0  0  0  0
  115.6942    3.4394   -0.4284 C   0  0  0  0  0  0  0  0  0  0  0  0
  116.9256    2.7093   -0.3403 C   0  0  0  0  0  0  0  0  0  0  0  0
  116.6757    1.3714   -0.1794 N   0  0  0  0  0  0  0  0  0  0  0  0
  118.1616    3.3205   -0.4133 C   0  0  0  0  0  0  0  0  0  0  0  0
  119.3976    2.7092   -0.3397 C   0  0  0  0  0  0  0  0  0  0  0  0
  120.6287    3.4400   -0.4273 C   0  0  0  0  0  0  0  0  0  0  0  0
  121.6306    2.5358   -0.3190 C   0  0  0  0  0  0  0  0  0  0  0  0
  121.0033    1.2589   -0.1664 C   0  0  0  0  0  0  0  0  0  0  0  0
  119.6482    1.3714   -0.1796 N   0  0  0  0  0  0  0  0  0  0  0  0
  121.6924    0.0504   -0.0219 C   0  0  0  0  0  0  0  0  0  0  0  0
  121.0036   -1.1582    0.1236 C   0  0  0  0  0  0  0  0  0  0  0  0
  121.6312   -2.4347    0.2774 C   0  0  0  0  0  0  0  0  0  0  0  0
  120.6296   -3.3392    0.3859 C   0  0  0  0  0  0  0  0  0  0  0  0
  119.3983   -2.6088    0.2979 C   0  0  0  0  0  0  0  0  0  0  0  0
  119.6485   -1.2710    0.1372 N   0  0  0  0  0  0  0  0  0  0  0  0
  118.1625   -3.2205    0.3708 C   0  0  0  0  0  0  0  0  0  0  0  0
  116.9263   -2.6096    0.2974 C   0  0  0  0  0  0  0  0  0  0  0  0
  116.6761   -1.2716    0.1375 N   0  0  0  0  0  0  0  0  0  0  0  0
  115.6261   -4.4032    0.5115 H   0  0  0  0  0  0  0  0  0  0  0  0
  113.6329   -2.5949    0.2957 H   0  0  0  0  0  0  0  0  0  0  0  0
  113.6321    2.6937   -0.3391 H   0  0  0  0  0  0  0  0  0  0  0  0
  115.6249    4.5024   -0.5563 H   0  0  0  0  0  0  0  0  0  0  0  0
  118.1616    4.3937   -0.5421 H   0  0  0  0  0  0  0  0  0  0  0  0
  120.6973    4.5031   -0.5545 H   0  0  0  0  0  0  0  0  0  0  0  0
  122.6911    2.6953   -0.3382 H   0  0  0  0  0  0  0  0  0  0  0  0
  122.6917   -2.5940    0.2969 H   0  0  0  0  0  0  0  0  0  0  0  0
  120.6985   -4.4022    0.5137 H   0  0  0  0  0  0  0  0  0  0  0  0
  118.1627   -4.2938    0.4992 H   0  0  0  0  0  0  0  0  0  0  0  0
  131.7931    0.0140   -0.0202 Fe  0  0  0  0  0  0  0  0  0  0  0  0
  129.3084   -3.3654    0.3619 C   0  0  0  0  0  0  0  0  0  0  0  0
  128.3112   -2.4551    0.2619 C   0  0  0  0  0  0  0  0  0  0  0  0
  128.9450   -1.1807    0.1160 C   0  0  0  0  0  0  0  0  0  0  0  0
  128.2620    0.0320   -0.0229 C   0  0  0  0  0  0  0  0  0  0  0  0
  128.9573    1.2376   -0.1621 C   0  0  0  0  0  0  0  0  0  0  0  0
  128.3367    2.5181   -0.3116 C   0  0  0  0  0  0  0  0  0  0  0  0
  129.3433    3.4179   -0.4128 C   0  0  0  0  0  0  0  0  0  0  0  0
  130.5706    2.6808   -0.3238 C   0  0  0  0  0  0  0  0  0  0  0  0
  130.3130    1.3434   -0.1713 N   0  0  0  0  0  0  0  0  0  0  0  0
  131.8100    3.2866   -0.3855 C   0  0  0  0  0  0  0  0  0  0  0  0
  133.0429    2.6694   -0.3083 C   0  0  0  0  0  0  0  0  0  0  0  0
  134.2777    3.3956   -0.3800 C   0  0  0  0  0  0  0  0  0  0  0  0
  135.2749    2.4861   -0.2741 C   0  0  0  0  0  0  0  0  0  0  0  0
  134.6412    1.2103   -0.1396 C   0  0  0  0  0  0  0  0  0  0  0  0
  133.2866    1.3290   -0.1598 N   0  0  0  0  0  0  0  0  0  0  0  0
  135.3243   -0.0035   -0.0121 C   0  0  0  0  0  0  0  0  0  0  0  0
  134.6291   -1.2107    0.1110 C   0  0  0  0  0  0  0  0  0  0  0  0
  135.2495   -2.4929    0.2463 C   0  0  0  0  0  0  0  0  0  0  0  0
  134.2429   -3.3929    0.3443 C   0  0  0  0  0  0  0  0  0  0  0  0
  133.0156   -2.6542    0.2687 C   0  0  0  0  0  0  0  0  0  0  0  0
  133.2732   -1.3160    0.1244 N   0  0  0  0  0  0  0  0  0  0  0  0
  131.7763   -3.2591    0.3398 C   0  0  0  0  0  0  0  0  0  0  0  0
  130.5433   -2.6406    0.2766 C   0  0  0  0  0  0  0  0  0  0  0  0
  130.2995   -1.3004    0.1267 N   0  0  0  0  0  0  0  0  0  0  0  0
  129.2343   -4.4289    0.4822 H   0  0  0  0  0  0  0  0  0  0  0  0
  127.2499   -2.6091    0.2820 H   0  0  0  0  0  0  0  0  0  0  0  0
  127.2771    2.6829   -0.3335 H   0  0  0  0  0  0  0  0  0  0  0  0
  129.2802    4.4818   -0.5357 H   0  0  0  0  0  0  0  0  0  0  0  0
  131.8157    4.3607   -0.5066 H   0  0  0  0  0  0  0  0  0  0  0  0
  134.3518    4.4596   -0.4963 H   0  0  0  0  0  0  0  0  0  0  0  0
  136.3362    2.6411   -0.2853 H   0  0  0  0  0  0  0  0  0  0  0  0
  136.3092   -2.6584    0.2623 H   0  0  0  0  0  0  0  0  0  0  0  0
  134.3059   -4.4579    0.4578 H   0  0  0  0  0  0  0  0  0  0  0  0
  131.7707   -4.3336    0.4580 H   0  0  0  0  0  0  0  0  0  0  0  0
  2  3  2  0  0  0  0
  3  4  1  0  0  0  0
  4  5  4  0  0  0  0
  5  6  4  0  0  0  0
  6  7  1  0  0  0  0
  7  8  2  0  0  0  0
  8  9  1  0  0  0  0
  1 10  1  0  0  0  0
  6 10  4  0  0  0  0
  9 10  4  0  0  0  0
  9 11  4  0  0  0  0
 11 12  4  0  0  0  0
 12 13  1  0  0  0  0
 13 14  2  0  0  0  0
 14 15  1  0  0  0  0
  1 16  1  0  0  0  0
 12 16  4  0  0  0  0
 15 16  4  0  0  0  0
 15 17  4  0  0  0  0
 17 18  4  0  0  0  0
 18 19  1  0  0  0  0
 19 20  2  0  0  0  0
 20 21  1  0  0  0  0
  1 22  1  0  0  0  0
 18 22  4  0  0  0  0
 21 22  4  0  0  0  0
 21 23  4  0  0  0  0
  2 24  1  0  0  0  0
 23 24  4  0  0  0  0
  1 25  1  0  0  0  0
  4 25  4  0  0  0  0
 24 25  4  0  0  0  0
  2 26  1  0  0  0  0
  3 27  1  0  0  0  0
  7 28  1  0  0  0  0
  8 29  1  0  0  0  0
 11 30  1  0  0  0  0
 13 31  1  0  0  0  0
 14 32  1  0  0  0  0
 17 33  1  0  0  0  0
 19 34  1  0  0  0  0
 20 35  1  0  0  0  0
 23 36  1  0  0  0  0
 38 39  2  0  0  0  0
 39 40  1  0  0  0  0
 40 41  4  0  0  0  0
 41 42  4  0  0  0  0
 42 43  1  0  0  0  0
 43 44  2  0  0  0  0
 44 45  1  0  0  0  0
 37 46  1  0  0  0  0
 42 46  4  0  0  0  0
 45 46  4  0  0  0  0
 45 47  4  0  0  0  0
 47 48  4  0  0  0  0
 48 49  1  0  0  0  0
 49 50  2  0  0  0  0
 50 51  1  0  0  0  0
 37 52  1  0  0  0  0
 48 52  4  0  0  0  0
 51 52  4  0  0  0  0
 51 53  4  0  0  0  0
 53 54  4  0  0  0  0
 54 55  1  0  0  0  0
 55 56  2  0  0  0  0
 56 57  1  0  0  0  0
 37 58  1  0  0  0  0
 54 58  4  0  0  0  0
 57 58  4  0  0  0  0
 57 59  4  0  0  0  0
 38 60  1  0  0  0  0
 59 60  4  0  0  0  0
 37 61  1  0  0  0  0
 40 61  4  0  0  0  0
 60 61  4  0  0  0  0
 38 62  1  0  0  0  0
 39 63  1  0  0  0  0
 43 64  1  0  0  0  0
 44 65  1  0  0  0  0
 47 66  1  0  0  0  0
 49 67  1  0  0  0  0
 50 68  1  0  0  0  0
 53 69  1  0  0  0  0
 55 70  1  0  0  0  0
 56 71  1  0  0  0  0
 59 72  1  0  0  0  0
  5 73  1  0  0  0  0
 73 74  3  0  0  0  0
 74 75  4  0  0  0  0
 75 76  3  0  0  0  0
 77 78  3  0  0  0  0
 78 79  4  0  0  0  0
 79 80  3  0  0  0  0
 81 82  3  0  0  0  0
 82 83  4  0  0  0  0
 83 84  3  0  0  0  0
 85 86  3  0  0  0  0
 86 87  4  0  0  0  0
 87 88  3  0  0  0  0
 89 90  3  0  0  0  0
 90 91  4  0  0  0  0
 91 92  3  0  0  0  0
 93 94  3  0  0  0  0
 94 95  4  0  0  0  0
 95 96  3  0  0  0  0
 97 98  3  0  0  0  0
 98 99  4  0  0  0  0
 41100  1  0  0  0  0
 99100  3  0  0  0  0
102103  2  0  0  0  0
103104  1  0  0  0  0
 76105  1  0  0  0  0
104105  4  0  0  0  0
105106  4  0  0  0  0
106107  1  0  0  0  0
107108  2  0  0  0  0
108109  1  0  0  0  0
101110  1  0  0  0  0
106110  4  0  0  0  0
109110  4  0  0  0  0
109111  4  0  0  0  0
111112  4  0  0  0  0
112113  1  0  0  0  0
113114  2  0  0  0  0
114115  1  0  0  0  0
101116  1  0  0  0  0
112116  4  0  0  0  0
115116  4  0  0  0  0
 77117  1  0  0  0  0
115117  4  0  0  0  0
117118  4  0  0  0  0
118119  1  0  0  0  0
119120  2  0  0  0  0
120121  1  0  0  0  0
101122  1  0  0  0  0
118122  4  0  0  0  0
121122  4  0  0  0  0
121123  4  0  0  0  0
102124  1  0  0  0  0
123124  4  0  0  0  0
101125  1  0  0  0  0
104125  4  0  0  0  0
124125  4  0  0  0  0
102126  1  0  0  0  0
103127  1  0  0  0  0
107128  1  0  0  0  0
108129  1  0  0  0  0
111130  1  0  0  0  0
113131  1  0  0  0  0
114132  1  0  0  0  0
119133  1  0  0  0  0
120134  1  0  0  0  0
123135  1  0  0  0  0
137138  2  0  0  0  0
138139  1  0  0  0  0
 80140  1  0  0  0  0
139140  4  0  0  0  0
140141  4  0  0  0  0
141142  1  0  0  0  0
142143  2  0  0  0  0
143144  1  0  0  0  0
136145  1  0  0  0  0
141145  4  0  0  0  0
144145  4  0  0  0  0
144146  4  0  0  0  0
146147  4  0  0  0  0
147148  1  0  0  0  0
148149  2  0  0  0  0
149150  1  0  0  0  0
136151  1  0  0  0  0
147151  4  0  0  0  0
150151  4  0  0  0  0
 81152  1  0  0  0  0
150152  4  0  0  0  0
152153  4  0  0  0  0
153154  1  0  0  0  0
154155  2  0  0  0  0
155156  1  0  0  0  0
136157  1  0  0  0  0
153157  4  0  0  0  0
156157  4  0  0  0  0
156158  4  0  0  0  0
137159  1  0  0  0  0
158159  4  0  0  0  0
136160  1  0  0  0  0
139160  4  0  0  0  0
159160  4  0  0  0  0
137161  1  0  0  0  0
138162  1  0  0  0  0
142163  1  0  0  0  0
143164  1  0  0  0  0
146165  1  0  0  0  0
148166  1  0  0  0  0
149167  1  0  0  0  0
154168  1  0  0  0  0
155169  1  0  0  0  0
158170  1  0  0  0  0
172173  2  0  0  0  0
173174  1  0  0  0  0
 84175  1  0  0  0  0
174175  4  0  0  0  0
175176  4  0  0  0  0
176177  1  0  0  0  0
177178  2  0  0  0  0
178179  1  0  0  0  0
171180  1  0  0  0  0
176180  4  0  0  0  0
179180  4  0  0  0  0
179181  4  0  0  0  0
181182  4  0  0  0  0
182183  1  0  0  0  0
183184  2  0  0  0  0
184185  1  0  0  0  0
171186  1  0  0  0  0
182186  4  0  0  0  0
185186  4  0  0  0  0
 85187  1  0  0  0  0
185187  4  0  0  0  0
187188  4  0  0  0  0
188189  1  0  0  0  0
189190  2  0  0  0  0
190191  1  0  0  0  0
171192  1  0  0  0  0
188192  4  0  0  0  0
191192  4  0  0  0  0
191193  4  0  0  0  0
172194  1  0  0  0  0
193194  4  0  0  0  0
171195  1  0  0  0  0
174195  4  0  0  0  0
194195  4  0  0  0  0
172196  1  0  0  0  0
173197  1  0  0  0  0
177198  1  0  0  0  0
178199  1  0  0  0  0
181200  1  0  0  0  0
183201  1  0  0  0  0
184202  1  0  0  0  0
189203  1  0  0  0  0
190204  1  0  0  0  0
193205  1  0  0  0  0
207208  2  0  0  0  0
208209  1  0  0  0  0
 88210  1  0  0  0  0
209210  4  0  0  0  0
210211  4  0  0  0  0
211212  1  0  0  0  0
212213  2  0  0  0  0
213214  1  0  0  0  0
206215  1  0  0  0  0
211215  4  0  0  0  0
214215  4  0  0  0  0
214216  4  0  0  0  0
216217  4  0  0  0  0
217218  1  0  0  0  0
218219  2  0  0  0  0
219220  1  0  0  0  0
206221  1  0  0  0  0
217221  4  0  0  0  0
220221  4  0  0  0  0
 89222  1  0  0  0  0
220222  4  0  0  0  0
222223  4  0  0  0  0
223224  1  0  0  0  0
224225  2  0  0  0  0
225226  1  0  0  0  0
206227  1  0  0  0  0
223227  4  0  0  0  0
226227  4  0  0  0  0
226228  4  0  0  0  0
207229  1  0  0  0  0
228229  4  0  0  0  0
206230  1  0  0  0  0
209230  4  0  0  0  0
229230  4  0  0  0  0
207231  1  0  0  0  0
208232  1  0  0  0  0
212233  1  0  0  0  0
213234  1  0  0  0  0
216235  1  0  0  0  0
218236  1  0  0  0  0
219237  1  0  0  0  0
224238  1  0  0  0  0
225239  1  0  0  0  0
228240  1  0  0  0  0
242243  2  0  0  0  0
243244  1  0  0  0  0
 92245  1  0  0  0  0
244245  4  0  0  0  0
245246  4  0  0  0  0
246247  1  0  0  0  0
247248  2  0  0  0  0
248249  1  0  0  0  0
241250  1  0  0  0  0
246250  4  0  0  0  0
249250  4  0  0  0  0
249251  4  0  0  0  0
251252  4  0  0  0  0
252253  1  0  0  0  0
253254  2  0  0  0  0
254255  1  0  0  0  0
241256  1  0  0  0  0
252256  4  0  0  0  0
255256  4  0  0  0  0
 93257  1  0  0  0  0
255257  4  0  0  0  0
257258  4  0  0  0  0
258259  1  0  0  0  0
259260  2  0  0  0  0
260261  1  0  0  0  0
241262  1  0  0  0  0
258262  4  0  0  0  0
261262  4  0  0  0  0
261263  4  0  0  0  0
242264  1  0  0  0  0
263264  4  0  0  0  0
241265  1  0  0  0  0
244265  4  0  0  0  0
264265  4  0  0  0  0
242266  1  0  0  0  0
243267  1  0  0  0  0
247268  1  0  0  0  0
248269  1  0  0  0  0
251270  1  0  0  0  0
253271  1  0  0  0  0
254272  1  0  0  0  0
259273  1  0  0  0  0
260274  1  0  0  0  0
263275  1  0  0  0  0
277278  2  0  0  0  0
278279  1  0  0  0  0
 96280  1  0  0  0  0
279280  4  0  0  0  0
280281  4  0  0  0  0
281282  1  0  0  0  0
282283  2  0  0  0  0
283284  1  0  0  0  0
276285  1  0  0  0  0
281285  4  0  0  0  0
284285  4  0  0  0  0
284286  4  0  0  0  0
286287  4  0  0  0  0
287288  1  0  0  0  0
288289  2  0  0  0  0
289290  1  0  0  0  0
276291  1  0  0  0  0
287291  4  0  0  0  0
290291  4  0  0  0  0
 97292  1  0  0  0  0
290292  4  0  0  0  0
292293  4  0  0  0  0
293294  1  0  0  0  0
294295  2  0  0  0  0
295296  1  0  0  0  0
276297  1  0  0  0  0
293297  4  0  0  0  0
296297  4  0  0  0  0
296298  4  0  0  0  0
277299  1  0  0  0  0
298299  4  0  0  0  0
276300  1  0  0  0  0
279300  4  0  0  0  0
299300  4  0  0  0  0
277301  1  0  0  0  0
278302  1  0  0  0  0
282303  1  0  0  0  0
283304  1  0  0  0  0
286305  1  0  0  0  0
288306  1  0  0  0  0
289307  1  0  0  0  0
294308  1  0  0  0  0
295309  1  0  0  0  0
298310  1  0  0  0  0
M  END
