201

Cu 22.807097 0.036469 -0.011435
C 25.136088 -3.110324 1.311254
C 26.052195 -2.166117 1.260972
C 25.641016 -1.112213 0.339680
C 26.259886 0.012133 -0.006730
C 25.555844 1.232082 -0.370835
C 25.883955 2.192137 -1.218309
C 24.849175 3.208422 -1.235207
C 23.912907 2.831960 -0.388315
N 24.314897 1.598949 0.175502
C 22.651833 3.476959 -0.009163
C 21.556615 2.842177 0.341597
C 20.482990 3.160133 1.310625
C 19.645427 2.163379 1.233459
C 20.083724 1.159696 0.253007
N 21.188663 1.598549 -0.231286
C 19.472890 -0.093575 -0.160541
C 20.137050 -1.198081 -0.414966
C 19.763202 -2.261023 -1.372493
C 20.711949 -3.154779 -1.283474
C 21.697673 -2.717329 -0.300596
N 21.344627 -1.571524 0.196201
C 22.928560 -3.373399 0.145125
C 24.051602 -2.727538 0.412246
N 24.380202 -1.480097 -0.186158
H 25.196350 -4.020105 1.928800
H 26.968523 -2.206066 1.839020
H 26.811320 2.208932 -1.819452
H 24.866074 4.113111 -1.847828
H 22.604110 4.571762 -0.012941
H 20.430168 4.038858 1.935617
H 18.733797 2.127709 1.850783
H 18.374639 -0.090664 -0.259812
H 18.894346 -2.313488 -2.021443
H 20.709103 -4.071087 -1.882233
H 22.893078 -4.469201 0.257050
Cu 88.861413 -0.010907 -0.015868
C 86.532422 2.835885 1.867637
C 85.616315 1.917396 1.643063
C 86.027494 1.052699 0.542249
C 85.408624 0.012133 -0.006730
C 86.112666 -1.119091 -0.590833
C 85.784556 -1.905263 -1.601700
C 86.819335 -2.900772 -1.806840
C 87.755603 -2.687956 -0.904810
N 87.353613 -1.580944 -0.122038
C 89.016678 -3.392097 -0.651896
C 90.111895 -2.833404 -0.189463
C 91.185520 -3.325610 0.703759
C 92.023083 -2.331843 0.812844
C 91.584786 -1.163694 0.035609
N 90.479848 -1.505086 -0.521691
C 92.195621 0.144541 -0.138261
C 91.531460 1.277075 -0.183367
C 91.905309 2.499200 -0.927082
C 90.956562 3.360928 -0.673804
C 89.970838 2.748733 0.210860
N 90.323884 1.530654 0.486470
C 88.739950 3.310727 0.770554
C 87.616908 2.626523 0.913222
N 87.288308 1.511748 0.093787
H 86.472160 3.615309 2.643241
H 84.699988 1.849415 2.218489
H 84.857190 -1.810246 -2.195524
H 86.802436 -3.676107 -2.576660
H 89.064400 -4.467195 -0.858710
H 91.238342 -4.305026 1.154886
H 92.934714 -2.411315 1.426069
H 93.293871 0.160097 -0.236348
H 92.774165 2.671144 -1.555035
H 90.959408 4.372409 -1.092181
H 88.775432 4.366744 1.083823
C 29.231898 0.023265 -0.002689
C 30.447431 -0.002079 -0.013168
C 31.868948 -0.023502 -0.017344
C 33.077509 -0.025713 -0.017239
C 34.498585 -0.006754 -0.017866
C 35.709727 0.023265 -0.002689
C 44.807074 0.023265 -0.002689
C 46.022606 -0.002079 -0.013168
C 47.444123 -0.023502 -0.017344
C 48.652685 -0.025713 -0.017239
C 50.073760 -0.006754 -0.017866
C 51.284902 0.023265 -0.002689
C 60.382249 0.023265 -0.002689
C 61.597782 -0.002079 -0.013168
C 63.019299 -0.023502 -0.017344
C 64.227861 -0.025713 -0.017239
C 65.648936 -0.006754 -0.017866
C 66.860078 0.023265 -0.002689
C 75.957425 0.023265 -0.002689
C 77.172958 -0.002079 -0.013168
C 78.594475 -0.023502 -0.017344
C 79.803036 -0.025713 -0.017239
C 81.224111 -0.006754 -0.017866
C 82.435254 0.023265 -0.002689
Cu 40.298317 0.034882 0.002139
C 38.018506 -3.226566 -0.907526
C 37.062297 -2.327215 -1.009553
C 37.454671 -1.164910 -0.207037
C 36.819555 -0.013638 0.005229
C 37.505012 1.260962 0.231459
C 37.169722 2.339562 0.935699
C 38.194263 3.358878 0.845117
C 39.144860 2.861954 0.071753
N 38.767866 1.545349 -0.344390
C 40.392000 3.473655 -0.345113
C 41.493551 2.806398 -0.676884
C 42.487098 3.058383 -1.711054
C 43.380981 2.097524 -1.609570
C 43.001283 1.185640 -0.505593
N 41.906368 1.634959 0.001774
C 43.658490 -0.013638 0.005229
C 43.035078 -1.082820 0.466746
C 43.413791 -2.014935 1.542222
C 42.473122 -2.929081 1.628088
C 41.464821 -2.633302 0.630661
N 41.802596 -1.579925 -0.018634
C 40.212428 -3.340310 0.299467
C 39.098551 -2.743613 -0.047874
N 38.716439 -1.460856 0.369809
H 38.018851 -4.217640 -1.398761
H 36.153763 -2.448909 -1.590701
H 36.244869 2.457913 1.512625
H 38.221558 4.348043 1.301768
H 40.477940 4.571033 -0.407136
H 42.519770 3.864599 -2.437878
H 44.274042 1.984555 -2.243344
H 44.328541 -1.940529 2.152391
H 42.492169 -3.742689 2.336355
H 40.250912 -4.440269 0.358504
Cu 55.873493 0.034882 0.002139
C 53.593682 -3.226566 -0.907526
C 52.637473 -2.327215 -1.009553
C 53.029847 -1.164910 -0.207037
C 52.394730 -0.013638 0.005229
C 53.080187 1.260962 0.231459
C 52.744897 2.339562 0.935699
C 53.769438 3.358878 0.845117
C 54.720036 2.861954 0.071753
N 54.343042 1.545349 -0.344390
C 55.967175 3.473655 -0.345113
C 57.068727 2.806398 -0.676884
C 58.062273 3.058383 -1.711054
C 58.956157 2.097524 -1.609570
C 58.576458 1.185640 -0.505593
N 57.481543 1.634959 0.001774
C 59.233665 -0.013638 0.005229
C 58.610254 -1.082820 0.466746
C 58.988967 -2.014935 1.542222
C 58.048298 -2.929081 1.628088
C 57.039997 -2.633302 0.630661
N 57.377771 -1.579925 -0.018634
C 55.787603 -3.340310 0.299467
C 54.673727 -2.743613 -0.047874
N 54.291615 -1.460856 0.369809
H 53.594027 -4.217640 -1.398761
H 51.728938 -2.448909 -1.590701
H 51.820045 2.457913 1.512625
H 53.796733 4.348043 1.301768
H 56.053115 4.571033 -0.407136
H 58.094946 3.864599 -2.437878
H 59.849218 1.984555 -2.243344
H 59.903717 -1.940529 2.152391
H 58.067344 -3.742689 2.336355
H 55.826088 -4.440269 0.358504
Cu 71.448668 0.034882 0.002139
C 69.168857 -3.226566 -0.907526
C 68.212648 -2.327215 -1.009553
C 68.605022 -1.164910 -0.207037
C 67.969906 -0.013638 0.005229
C 68.655363 1.260962 0.231459
C 68.320073 2.339562 0.935699
C 69.344614 3.358878 0.845117
C 70.295211 2.861954 0.071753
N 69.918217 1.545349 -0.344390
C 71.542351 3.473655 -0.345113
C 72.643902 2.806398 -0.676884
C 73.637449 3.058383 -1.711054
C 74.531332 2.097524 -1.609570
C 74.151634 1.185640 -0.505593
N 73.056719 1.634959 0.001774
C 74.808841 -0.013638 0.005229
C 74.185430 -1.082820 0.466746
C 74.564142 -2.014935 1.542222
C 73.623473 -2.929081 1.628088
C 72.615172 -2.633302 0.630661
N 72.952947 -1.579925 -0.018634
C 71.362779 -3.340310 0.299467
C 70.248902 -2.743613 -0.047874
N 69.866790 -1.460856 0.369809
H 69.169202 -4.217640 -1.398761
H 67.304114 -2.448909 -1.590701
H 67.395221 2.457913 1.512625
H 69.371909 4.348043 1.301768
H 71.628291 4.571033 -0.407136
H 73.670121 3.864599 -2.437878
H 75.424394 1.984555 -2.243344
H 75.478892 -1.940529 2.152391
H 73.642520 -3.742689 2.336355
H 71.401263 -4.440269 0.358504
