
  xtb     11212121103D
 xtb: 6.4.1 (bd6e46d)
148179  0     0  0            999 V2000
   25.2772    0.0154   -0.0087 Fe  0  0  0  0  0  0  0  0  0  0  0  0
   27.7652   -2.8832    1.7590 C   0  0  0  0  0  0  0  0  0  0  0  0
   28.7595   -2.0855    1.3039 C   0  0  0  0  0  0  0  0  0  0  0  0
   28.1248   -1.0016    0.6185 C   0  0  0  0  0  0  0  0  0  0  0  0
   28.8051    0.0401   -0.0179 C   0  0  0  0  0  0  0  0  0  0  0  0
   28.1076    1.0745   -0.6475 C   0  0  0  0  0  0  0  0  0  0  0  0
   28.7237    2.1707   -1.3301 C   0  0  0  0  0  0  0  0  0  0  0  0
   27.7161    2.9574   -1.7749 C   0  0  0  0  0  0  0  0  0  0  0  0
   26.4904    2.3331   -1.3673 C   0  0  0  0  0  0  0  0  0  0  0  0
   26.7506    1.1750   -0.6832 N   0  0  0  0  0  0  0  0  0  0  0  0
   25.2504    2.8730   -1.6484 C   0  0  0  0  0  0  0  0  0  0  0  0
   24.0209    2.3383   -1.3181 C   0  0  0  0  0  0  0  0  0  0  0  0
   22.7798    2.9765   -1.6601 C   0  0  0  0  0  0  0  0  0  0  0  0
   21.7895    2.1752   -1.2072 C   0  0  0  0  0  0  0  0  0  0  0  0
   22.4285    1.0498   -0.5891 C   0  0  0  0  0  0  0  0  0  0  0  0
   23.7868    1.1633   -0.6591 N   0  0  0  0  0  0  0  0  0  0  0  0
   21.7672   -0.0147   -0.0096 C   0  0  0  0  0  0  0  0  0  0  0  0
   22.4463   -1.0672    0.5711 C   0  0  0  0  0  0  0  0  0  0  0  0
   21.8264   -2.2032    1.1895 C   0  0  0  0  0  0  0  0  0  0  0  0
   22.8300   -2.9856    1.6459 C   0  0  0  0  0  0  0  0  0  0  0  0
   24.0601   -2.3259    1.3052 C   0  0  0  0  0  0  0  0  0  0  0  0
   23.8062   -1.1565    0.6434 N   0  0  0  0  0  0  0  0  0  0  0  0
   25.2985   -2.8378    1.6386 C   0  0  0  0  0  0  0  0  0  0  0  0
   26.5289   -2.2789    1.3532 C   0  0  0  0  0  0  0  0  0  0  0  0
   26.7694   -1.1207    0.6619 N   0  0  0  0  0  0  0  0  0  0  0  0
   27.8418   -3.7953    2.3189 H   0  0  0  0  0  0  0  0  0  0  0  0
   29.8197   -2.1951    1.4201 H   0  0  0  0  0  0  0  0  0  0  0  0
   29.7819    2.2960   -1.4502 H   0  0  0  0  0  0  0  0  0  0  0  0
   27.7770    3.8741   -2.3293 H   0  0  0  0  0  0  0  0  0  0  0  0
   25.2426    3.8102   -2.1871 H   0  0  0  0  0  0  0  0  0  0  0  0
   22.7012    3.9123   -2.1796 H   0  0  0  0  0  0  0  0  0  0  0  0
   20.7275    2.3122   -1.2746 H   0  0  0  0  0  0  0  0  0  0  0  0
   20.6883   -0.0241   -0.0101 H   0  0  0  0  0  0  0  0  0  0  0  0
   20.7669   -2.3593    1.2547 H   0  0  0  0  0  0  0  0  0  0  0  0
   22.7674   -3.9221    2.1663 H   0  0  0  0  0  0  0  0  0  0  0  0
   25.3068   -3.7725    2.1814 H   0  0  0  0  0  0  0  0  0  0  0  0
   58.4998    0.0416   -0.0157 Fe  0  0  0  0  0  0  0  0  0  0  0  0
   56.0207    2.9394    1.7672 C   0  0  0  0  0  0  0  0  0  0  0  0
   55.0239    2.1564    1.2927 C   0  0  0  0  0  0  0  0  0  0  0  0
   55.6564    1.0717    0.6062 C   0  0  0  0  0  0  0  0  0  0  0  0
   54.9734    0.0370   -0.0379 C   0  0  0  0  0  0  0  0  0  0  0  0
   55.6660   -0.9939   -0.6778 C   0  0  0  0  0  0  0  0  0  0  0  0
   55.0447   -2.0769   -1.3769 C   0  0  0  0  0  0  0  0  0  0  0  0
   56.0494   -2.8544   -1.8441 C   0  0  0  0  0  0  0  0  0  0  0  0
   57.2780   -2.2396   -1.4303 C   0  0  0  0  0  0  0  0  0  0  0  0
   57.0226   -1.0960   -0.7206 N   0  0  0  0  0  0  0  0  0  0  0  0
   58.5161   -2.7741   -1.7290 C   0  0  0  0  0  0  0  0  0  0  0  0
   59.7472   -2.2534   -1.3825 C   0  0  0  0  0  0  0  0  0  0  0  0
   60.9861   -2.8885   -1.7381 C   0  0  0  0  0  0  0  0  0  0  0  0
   61.9791   -2.1097   -1.2530 C   0  0  0  0  0  0  0  0  0  0  0  0
   61.3439   -1.0002   -0.6028 C   0  0  0  0  0  0  0  0  0  0  0  0
   59.9854   -1.1011   -0.6860 N   0  0  0  0  0  0  0  0  0  0  0  0
   62.0090    0.0379    0.0184 C   0  0  0  0  0  0  0  0  0  0  0  0
   61.3343    1.0784    0.6253 C   0  0  0  0  0  0  0  0  0  0  0  0
   61.9589    2.1876    1.2859 C   0  0  0  0  0  0  0  0  0  0  0  0
   60.9583    2.9704    1.7482 C   0  0  0  0  0  0  0  0  0  0  0  0
   59.7254    2.3375    1.3691 C   0  0  0  0  0  0  0  0  0  0  0  0
   59.9746    1.1827    0.6807 N   0  0  0  0  0  0  0  0  0  0  0  0
   58.4886    2.8611    1.6900 C   0  0  0  0  0  0  0  0  0  0  0  0
   57.2558    2.3252    1.3727 C   0  0  0  0  0  0  0  0  0  0  0  0
   57.0122    1.1778    0.6648 N   0  0  0  0  0  0  0  0  0  0  0  0
   55.9466    3.8474    2.3341 H   0  0  0  0  0  0  0  0  0  0  0  0
   53.9631    2.2767    1.3945 H   0  0  0  0  0  0  0  0  0  0  0  0
   53.9855   -2.1996   -1.4921 H   0  0  0  0  0  0  0  0  0  0  0  0
   55.9848   -3.7593   -2.4171 H   0  0  0  0  0  0  0  0  0  0  0  0
   58.5209   -3.6960   -2.2933 H   0  0  0  0  0  0  0  0  0  0  0  0
   61.0614   -3.8078   -2.2867 H   0  0  0  0  0  0  0  0  0  0  0  0
   63.0404   -2.2523   -1.3178 H   0  0  0  0  0  0  0  0  0  0  0  0
   63.0879    0.0365    0.0293 H   0  0  0  0  0  0  0  0  0  0  0  0
   63.0191    2.3276    1.3723 H   0  0  0  0  0  0  0  0  0  0  0  0
   61.0247    3.8908    2.2961 H   0  0  0  0  0  0  0  0  0  0  0  0
   58.4837    3.7852    2.2509 H   0  0  0  0  0  0  0  0  0  0  0  0
   30.2063    0.0460   -0.0233 C   0  0  0  0  0  0  0  0  0  0  0  0
   31.4189    0.0440   -0.0279 C   0  0  0  0  0  0  0  0  0  0  0  0
   41.2837    0.0207    0.0096 C   0  0  0  0  0  0  0  0  0  0  0  0
   42.4966    0.0184    0.0134 C   0  0  0  0  0  0  0  0  0  0  0  0
   52.3597    0.0296   -0.0395 C   0  0  0  0  0  0  0  0  0  0  0  0
   53.5721    0.0334   -0.0399 C   0  0  0  0  0  0  0  0  0  0  0  0
   36.3516    0.0314   -0.0190 Fe  0  0  0  0  0  0  0  0  0  0  0  0
   33.8774   -3.3400    0.4584 C   0  0  0  0  0  0  0  0  0  0  0  0
   32.8786   -2.4426    0.2872 C   0  0  0  0  0  0  0  0  0  0  0  0
   33.5061   -1.1656    0.1361 C   0  0  0  0  0  0  0  0  0  0  0  0
   32.8197    0.0410   -0.0280 C   0  0  0  0  0  0  0  0  0  0  0  0
   33.5136    1.2431   -0.1924 C   0  0  0  0  0  0  0  0  0  0  0  0
   32.8940    2.5229   -0.3515 C   0  0  0  0  0  0  0  0  0  0  0  0
   33.8985    3.4138   -0.5235 C   0  0  0  0  0  0  0  0  0  0  0  0
   35.1254    2.6732   -0.4622 C   0  0  0  0  0  0  0  0  0  0  0  0
   34.8694    1.3449   -0.2447 N   0  0  0  0  0  0  0  0  0  0  0  0
   36.3620    3.2637   -0.6327 C   0  0  0  0  0  0  0  0  0  0  0  0
   37.5947    2.6444   -0.5711 C   0  0  0  0  0  0  0  0  0  0  0  0
   38.8265    3.3488   -0.7807 C   0  0  0  0  0  0  0  0  0  0  0  0
   39.8254    2.4517   -0.6076 C   0  0  0  0  0  0  0  0  0  0  0  0
   39.1974    1.2066   -0.2880 C   0  0  0  0  0  0  0  0  0  0  0  0
   37.8423    1.3278   -0.2834 N   0  0  0  0  0  0  0  0  0  0  0  0
   39.8834    0.0236    0.0023 C   0  0  0  0  0  0  0  0  0  0  0  0
   39.1888   -1.1571    0.2812 C   0  0  0  0  0  0  0  0  0  0  0  0
   39.8077   -2.4066    0.6015 C   0  0  0  0  0  0  0  0  0  0  0  0
   38.8033   -3.3011    0.7544 C   0  0  0  0  0  0  0  0  0  0  0  0
   37.5771   -2.5904    0.5336 C   0  0  0  0  0  0  0  0  0  0  0  0
   37.8334   -1.2729    0.2581 N   0  0  0  0  0  0  0  0  0  0  0  0
   36.3411   -3.2043    0.5797 C   0  0  0  0  0  0  0  0  0  0  0  0
   35.1087   -2.6062    0.4051 C   0  0  0  0  0  0  0  0  0  0  0  0
   34.8610   -1.2754    0.1931 N   0  0  0  0  0  0  0  0  0  0  0  0
   33.8067   -4.4002    0.6071 H   0  0  0  0  0  0  0  0  0  0  0  0
   31.8199   -2.6088    0.2528 H   0  0  0  0  0  0  0  0  0  0  0  0
   31.8360    2.6949   -0.3225 H   0  0  0  0  0  0  0  0  0  0  0  0
   33.8345    4.4737   -0.6771 H   0  0  0  0  0  0  0  0  0  0  0  0
   36.3655    4.3255   -0.8351 H   0  0  0  0  0  0  0  0  0  0  0  0
   38.8975    4.3905   -1.0277 H   0  0  0  0  0  0  0  0  0  0  0  0
   40.8844    2.5954   -0.6935 H   0  0  0  0  0  0  0  0  0  0  0  0
   40.8650   -2.5546    0.7009 H   0  0  0  0  0  0  0  0  0  0  0  0
   38.8670   -4.3449    0.9946 H   0  0  0  0  0  0  0  0  0  0  0  0
   36.3377   -4.2673    0.7753 H   0  0  0  0  0  0  0  0  0  0  0  0
   47.4283    0.0223   -0.0079 Fe  0  0  0  0  0  0  0  0  0  0  0  0
   44.9659   -3.3558   -0.4978 C   0  0  0  0  0  0  0  0  0  0  0  0
   43.9638   -2.4513   -0.3971 C   0  0  0  0  0  0  0  0  0  0  0  0
   44.5873   -1.1818   -0.1815 C   0  0  0  0  0  0  0  0  0  0  0  0
   43.8970    0.0183    0.0121 C   0  0  0  0  0  0  0  0  0  0  0  0
   44.5870    1.2193    0.2011 C   0  0  0  0  0  0  0  0  0  0  0  0
   43.9627    2.4868    0.4266 C   0  0  0  0  0  0  0  0  0  0  0  0
   44.9637    3.3937    0.5169 C   0  0  0  0  0  0  0  0  0  0  0  0
   46.1929    2.6731    0.3528 C   0  0  0  0  0  0  0  0  0  0  0  0
   45.9420    1.3380    0.1733 N   0  0  0  0  0  0  0  0  0  0  0  0
   47.4266    3.2934    0.3602 C   0  0  0  0  0  0  0  0  0  0  0  0
   48.6617    2.6891    0.2325 C   0  0  0  0  0  0  0  0  0  0  0  0
   49.8907    3.4288    0.2410 C   0  0  0  0  0  0  0  0  0  0  0  0
   50.8928    2.5254    0.1312 C   0  0  0  0  0  0  0  0  0  0  0  0
   50.2690    1.2395    0.0604 C   0  0  0  0  0  0  0  0  0  0  0  0
   48.9138    1.3481    0.1093 N   0  0  0  0  0  0  0  0  0  0  0  0
   50.9589    0.0278   -0.0324 C   0  0  0  0  0  0  0  0  0  0  0  0
   50.2708   -1.1856   -0.1156 C   0  0  0  0  0  0  0  0  0  0  0  0
   50.8973   -2.4698   -0.1930 C   0  0  0  0  0  0  0  0  0  0  0  0
   49.8963   -3.3763   -0.2873 C   0  0  0  0  0  0  0  0  0  0  0  0
   48.6654   -2.6401   -0.2631 C   0  0  0  0  0  0  0  0  0  0  0  0
   48.9152   -1.2981   -0.1454 N   0  0  0  0  0  0  0  0  0  0  0  0
   47.4306   -3.2483   -0.3734 C   0  0  0  0  0  0  0  0  0  0  0  0
   46.1952   -2.6317   -0.3502 C   0  0  0  0  0  0  0  0  0  0  0  0
   45.9429   -1.2972   -0.1692 N   0  0  0  0  0  0  0  0  0  0  0  0
   44.8986   -4.4145   -0.6583 H   0  0  0  0  0  0  0  0  0  0  0  0
   42.9051   -2.6055   -0.4689 H   0  0  0  0  0  0  0  0  0  0  0  0
   42.9047    2.6379    0.5122 H   0  0  0  0  0  0  0  0  0  0  0  0
   44.8957    4.4519    0.6802 H   0  0  0  0  0  0  0  0  0  0  0  0
   47.4254    4.3676    0.4804 H   0  0  0  0  0  0  0  0  0  0  0  0
   49.9579    4.4967    0.3207 H   0  0  0  0  0  0  0  0  0  0  0  0
   51.9515    2.6918    0.0905 H   0  0  0  0  0  0  0  0  0  0  0  0
   51.9570   -2.6328   -0.1670 H   0  0  0  0  0  0  0  0  0  0  0  0
   49.9653   -4.4441   -0.3658 H   0  0  0  0  0  0  0  0  0  0  0  0
   47.4311   -4.3227   -0.4927 H   0  0  0  0  0  0  0  0  0  0  0  0
  2  3  2  0  0  0  0
  3  4  1  0  0  0  0
  4  5  4  0  0  0  0
  5  6  4  0  0  0  0
  6  7  1  0  0  0  0
  7  8  2  0  0  0  0
  8  9  1  0  0  0  0
  1 10  1  0  0  0  0
  6 10  4  0  0  0  0
  9 10  4  0  0  0  0
  9 11  4  0  0  0  0
 11 12  4  0  0  0  0
 12 13  1  0  0  0  0
 13 14  2  0  0  0  0
 14 15  1  0  0  0  0
  1 16  1  0  0  0  0
 12 16  4  0  0  0  0
 15 16  4  0  0  0  0
 15 17  4  0  0  0  0
 17 18  4  0  0  0  0
 18 19  1  0  0  0  0
 19 20  2  0  0  0  0
 20 21  1  0  0  0  0
  1 22  1  0  0  0  0
 18 22  4  0  0  0  0
 21 22  4  0  0  0  0
 21 23  4  0  0  0  0
  2 24  1  0  0  0  0
 23 24  4  0  0  0  0
  1 25  1  0  0  0  0
  4 25  4  0  0  0  0
 24 25  4  0  0  0  0
  2 26  1  0  0  0  0
  3 27  1  0  0  0  0
  7 28  1  0  0  0  0
  8 29  1  0  0  0  0
 11 30  1  0  0  0  0
 13 31  1  0  0  0  0
 14 32  1  0  0  0  0
 17 33  1  0  0  0  0
 19 34  1  0  0  0  0
 20 35  1  0  0  0  0
 23 36  1  0  0  0  0
 38 39  2  0  0  0  0
 39 40  1  0  0  0  0
 40 41  4  0  0  0  0
 41 42  4  0  0  0  0
 42 43  1  0  0  0  0
 43 44  2  0  0  0  0
 44 45  1  0  0  0  0
 37 46  1  0  0  0  0
 42 46  4  0  0  0  0
 45 46  4  0  0  0  0
 45 47  4  0  0  0  0
 47 48  4  0  0  0  0
 48 49  1  0  0  0  0
 49 50  2  0  0  0  0
 50 51  1  0  0  0  0
 37 52  1  0  0  0  0
 48 52  4  0  0  0  0
 51 52  4  0  0  0  0
 51 53  4  0  0  0  0
 53 54  4  0  0  0  0
 54 55  1  0  0  0  0
 55 56  2  0  0  0  0
 56 57  1  0  0  0  0
 37 58  1  0  0  0  0
 54 58  4  0  0  0  0
 57 58  4  0  0  0  0
 57 59  4  0  0  0  0
 38 60  1  0  0  0  0
 59 60  4  0  0  0  0
 37 61  1  0  0  0  0
 40 61  4  0  0  0  0
 60 61  4  0  0  0  0
 38 62  1  0  0  0  0
 39 63  1  0  0  0  0
 43 64  1  0  0  0  0
 44 65  1  0  0  0  0
 47 66  1  0  0  0  0
 49 67  1  0  0  0  0
 50 68  1  0  0  0  0
 53 69  1  0  0  0  0
 55 70  1  0  0  0  0
 56 71  1  0  0  0  0
 59 72  1  0  0  0  0
  5 73  1  0  0  0  0
 73 74  3  0  0  0  0
 75 76  3  0  0  0  0
 41 78  1  0  0  0  0
 77 78  3  0  0  0  0
 80 81  2  0  0  0  0
 81 82  1  0  0  0  0
 74 83  1  0  0  0  0
 82 83  4  0  0  0  0
 83 84  4  0  0  0  0
 84 85  1  0  0  0  0
 85 86  2  0  0  0  0
 86 87  1  0  0  0  0
 79 88  1  0  0  0  0
 84 88  4  0  0  0  0
 87 88  4  0  0  0  0
 87 89  4  0  0  0  0
 89 90  4  0  0  0  0
 90 91  1  0  0  0  0
 91 92  2  0  0  0  0
 92 93  1  0  0  0  0
 79 94  1  0  0  0  0
 90 94  4  0  0  0  0
 93 94  4  0  0  0  0
 75 95  1  0  0  0  0
 93 95  4  0  0  0  0
 95 96  4  0  0  0  0
 96 97  1  0  0  0  0
 97 98  2  0  0  0  0
 98 99  1  0  0  0  0
 79100  1  0  0  0  0
 96100  4  0  0  0  0
 99100  4  0  0  0  0
 99101  4  0  0  0  0
 80102  1  0  0  0  0
101102  4  0  0  0  0
 79103  1  0  0  0  0
 82103  4  0  0  0  0
102103  4  0  0  0  0
 80104  1  0  0  0  0
 81105  1  0  0  0  0
 85106  1  0  0  0  0
 86107  1  0  0  0  0
 89108  1  0  0  0  0
 91109  1  0  0  0  0
 92110  1  0  0  0  0
 97111  1  0  0  0  0
 98112  1  0  0  0  0
101113  1  0  0  0  0
115116  2  0  0  0  0
116117  1  0  0  0  0
 76118  1  0  0  0  0
117118  4  0  0  0  0
118119  4  0  0  0  0
119120  1  0  0  0  0
120121  2  0  0  0  0
121122  1  0  0  0  0
114123  1  0  0  0  0
119123  4  0  0  0  0
122123  4  0  0  0  0
122124  4  0  0  0  0
124125  4  0  0  0  0
125126  1  0  0  0  0
126127  2  0  0  0  0
127128  1  0  0  0  0
114129  1  0  0  0  0
125129  4  0  0  0  0
128129  4  0  0  0  0
 77130  1  0  0  0  0
128130  4  0  0  0  0
130131  4  0  0  0  0
131132  1  0  0  0  0
132133  2  0  0  0  0
133134  1  0  0  0  0
114135  1  0  0  0  0
131135  4  0  0  0  0
134135  4  0  0  0  0
134136  4  0  0  0  0
115137  1  0  0  0  0
136137  4  0  0  0  0
114138  1  0  0  0  0
117138  4  0  0  0  0
137138  4  0  0  0  0
115139  1  0  0  0  0
116140  1  0  0  0  0
120141  1  0  0  0  0
121142  1  0  0  0  0
124143  1  0  0  0  0
126144  1  0  0  0  0
127145  1  0  0  0  0
132146  1  0  0  0  0
133147  1  0  0  0  0
136148  1  0  0  0  0
M  END
