
  xtb     11202115563D
 xtb: 6.4.1 (bd6e46d)
160191  0     0  0            999 V2000
   17.8751   -0.0024   -0.0092 Cu  0  0  0  0  0  0  0  0  0  0  0  0
   20.4023   -3.4281    0.0451 C   0  0  0  0  0  0  0  0  0  0  0  0
   21.3546   -2.4653    0.0436 C   0  0  0  0  0  0  0  0  0  0  0  0
   20.6652   -1.2072    0.0215 C   0  0  0  0  0  0  0  0  0  0  0  0
   21.3120    0.0376    0.0083 C   0  0  0  0  0  0  0  0  0  0  0  0
   20.6366    1.2670   -0.0067 C   0  0  0  0  0  0  0  0  0  0  0  0
   21.2966    2.5411   -0.0151 C   0  0  0  0  0  0  0  0  0  0  0  0
   20.3221    3.4815   -0.0212 C   0  0  0  0  0  0  0  0  0  0  0  0
   19.0702    2.7798   -0.0171 C   0  0  0  0  0  0  0  0  0  0  0  0
   19.2951    1.4375   -0.0092 N   0  0  0  0  0  0  0  0  0  0  0  0
   17.8340    3.4006   -0.0187 C   0  0  0  0  0  0  0  0  0  0  0  0
   16.6138    2.7486   -0.0189 C   0  0  0  0  0  0  0  0  0  0  0  0
   15.3408    3.4168   -0.0215 C   0  0  0  0  0  0  0  0  0  0  0  0
   14.3941    2.4509   -0.0281 C   0  0  0  0  0  0  0  0  0  0  0  0
   15.0876    1.1912   -0.0290 C   0  0  0  0  0  0  0  0  0  0  0  0
   16.4276    1.4043   -0.0218 N   0  0  0  0  0  0  0  0  0  0  0  0
   14.4607   -0.0425   -0.0394 C   0  0  0  0  0  0  0  0  0  0  0  0
   15.1163   -1.2613   -0.0362 C   0  0  0  0  0  0  0  0  0  0  0  0
   14.4526   -2.5368   -0.0457 C   0  0  0  0  0  0  0  0  0  0  0  0
   15.4216   -3.4803   -0.0306 C   0  0  0  0  0  0  0  0  0  0  0  0
   16.6784   -2.7824   -0.0125 C   0  0  0  0  0  0  0  0  0  0  0  0
   16.4609   -1.4429   -0.0182 N   0  0  0  0  0  0  0  0  0  0  0  0
   17.9134   -3.4057    0.0105 C   0  0  0  0  0  0  0  0  0  0  0  0
   19.1345   -2.7560    0.0236 C   0  0  0  0  0  0  0  0  0  0  0  0
   19.3282   -1.4089    0.0118 N   0  0  0  0  0  0  0  0  0  0  0  0
   20.5277   -4.4935    0.0589 H   0  0  0  0  0  0  0  0  0  0  0  0
   22.4217   -2.5748    0.0559 H   0  0  0  0  0  0  0  0  0  0  0  0
   22.3610    2.6755   -0.0155 H   0  0  0  0  0  0  0  0  0  0  0  0
   20.4226    4.5495   -0.0282 H   0  0  0  0  0  0  0  0  0  0  0  0
   17.8217    4.4811   -0.0209 H   0  0  0  0  0  0  0  0  0  0  0  0
   15.2131    4.4822   -0.0188 H   0  0  0  0  0  0  0  0  0  0  0  0
   13.3264    2.5573   -0.0317 H   0  0  0  0  0  0  0  0  0  0  0  0
   13.3806   -0.0552   -0.0495 H   0  0  0  0  0  0  0  0  0  0  0  0
   13.3878   -2.6683   -0.0616 H   0  0  0  0  0  0  0  0  0  0  0  0
   15.3189   -4.5484   -0.0315 H   0  0  0  0  0  0  0  0  0  0  0  0
   17.9263   -4.4861    0.0175 H   0  0  0  0  0  0  0  0  0  0  0  0
   65.9010    0.0282   -0.0079 Cu  0  0  0  0  0  0  0  0  0  0  0  0
   63.3803    3.3955    0.6506 C   0  0  0  0  0  0  0  0  0  0  0  0
   62.4261    2.4517    0.4704 C   0  0  0  0  0  0  0  0  0  0  0  0
   63.1130    1.2153    0.2287 C   0  0  0  0  0  0  0  0  0  0  0  0
   62.4638   -0.0067   -0.0021 C   0  0  0  0  0  0  0  0  0  0  0  0
   63.1366   -1.2163   -0.2297 C   0  0  0  0  0  0  0  0  0  0  0  0
   62.4742   -2.4679   -0.4611 C   0  0  0  0  0  0  0  0  0  0  0  0
   63.4469   -3.3936   -0.6370 C   0  0  0  0  0  0  0  0  0  0  0  0
   64.7002   -2.7052   -0.5135 C   0  0  0  0  0  0  0  0  0  0  0  0
   64.4778   -1.3856   -0.2660 N   0  0  0  0  0  0  0  0  0  0  0  0
   65.9352   -3.3168   -0.6338 C   0  0  0  0  0  0  0  0  0  0  0  0
   67.1567   -2.6768   -0.5224 C   0  0  0  0  0  0  0  0  0  0  0  0
   68.4283   -3.3347   -0.6542 C   0  0  0  0  0  0  0  0  0  0  0  0
   69.3770   -2.3855   -0.4857 C   0  0  0  0  0  0  0  0  0  0  0  0
   68.6861   -1.1466   -0.2501 C   0  0  0  0  0  0  0  0  0  0  0  0
   67.3456   -1.3553   -0.2782 N   0  0  0  0  0  0  0  0  0  0  0  0
   69.3155    0.0660   -0.0293 C   0  0  0  0  0  0  0  0  0  0  0  0
   68.6625    1.2639    0.2025 C   0  0  0  0  0  0  0  0  0  0  0  0
   69.3288    2.5168    0.4344 C   0  0  0  0  0  0  0  0  0  0  0  0
   68.3617    3.4436    0.6218 C   0  0  0  0  0  0  0  0  0  0  0  0
   67.1033    2.7583    0.5036 C   0  0  0  0  0  0  0  0  0  0  0  0
   67.3182    1.4425    0.2499 N   0  0  0  0  0  0  0  0  0  0  0  0
   65.8695    3.3707    0.6324 C   0  0  0  0  0  0  0  0  0  0  0  0
   64.6469    2.7338    0.5174 C   0  0  0  0  0  0  0  0  0  0  0  0
   64.4506    1.4115    0.2624 N   0  0  0  0  0  0  0  0  0  0  0  0
   63.2571    4.4415    0.8544 H   0  0  0  0  0  0  0  0  0  0  0  0
   61.3592    2.5607    0.4953 H   0  0  0  0  0  0  0  0  0  0  0  0
   61.4096   -2.5988   -0.4817 H   0  0  0  0  0  0  0  0  0  0  0  0
   63.3443   -4.4434   -0.8326 H   0  0  0  0  0  0  0  0  0  0  0  0
   65.9454   -4.3790   -0.8317 H   0  0  0  0  0  0  0  0  0  0  0  0
   68.5539   -4.3823   -0.8495 H   0  0  0  0  0  0  0  0  0  0  0  0
   70.4444   -2.4908   -0.5134 H   0  0  0  0  0  0  0  0  0  0  0  0
   70.3957    0.0780   -0.0370 H   0  0  0  0  0  0  0  0  0  0  0  0
   70.3940    2.6459    0.4477 H   0  0  0  0  0  0  0  0  0  0  0  0
   68.4666    4.4927    0.8210 H   0  0  0  0  0  0  0  0  0  0  0  0
   65.8586    4.4316    0.8373 H   0  0  0  0  0  0  0  0  0  0  0  0
   22.7084    0.0527    0.0106 C   0  0  0  0  0  0  0  0  0  0  0  0
   23.9282    0.0602    0.0096 C   0  0  0  0  0  0  0  0  0  0  0  0
   25.2640    0.0673    0.0056 C   0  0  0  0  0  0  0  0  0  0  0  0
   26.4884    0.0672    0.0052 C   0  0  0  0  0  0  0  0  0  0  0  0
   27.8240    0.0667    0.0004 C   0  0  0  0  0  0  0  0  0  0  0  0
   29.0441    0.0658   -0.0067 C   0  0  0  0  0  0  0  0  0  0  0  0
   38.7199    0.0383   -0.0205 C   0  0  0  0  0  0  0  0  0  0  0  0
   39.9401    0.0376   -0.0202 C   0  0  0  0  0  0  0  0  0  0  0  0
   41.2754    0.0366   -0.0193 C   0  0  0  0  0  0  0  0  0  0  0  0
   42.4999    0.0367   -0.0193 C   0  0  0  0  0  0  0  0  0  0  0  0
   43.8351    0.0354   -0.0194 C   0  0  0  0  0  0  0  0  0  0  0  0
   45.0553    0.0334   -0.0194 C   0  0  0  0  0  0  0  0  0  0  0  0
   54.7313   -0.0109   -0.0186 C   0  0  0  0  0  0  0  0  0  0  0  0
   55.9514   -0.0178   -0.0141 C   0  0  0  0  0  0  0  0  0  0  0  0
   57.2871   -0.0207   -0.0131 C   0  0  0  0  0  0  0  0  0  0  0  0
   58.5114   -0.0270   -0.0106 C   0  0  0  0  0  0  0  0  0  0  0  0
   59.8473   -0.0244   -0.0076 C   0  0  0  0  0  0  0  0  0  0  0  0
   61.0672   -0.0183   -0.0041 C   0  0  0  0  0  0  0  0  0  0  0  0
   33.8821    0.0513   -0.0172 Cu  0  0  0  0  0  0  0  0  0  0  0  0
   31.3844   -3.3739    0.3766 C   0  0  0  0  0  0  0  0  0  0  0  0
   30.4220   -2.4268    0.2715 C   0  0  0  0  0  0  0  0  0  0  0  0
   31.0985   -1.1698    0.1269 C   0  0  0  0  0  0  0  0  0  0  0  0
   30.4397    0.0616   -0.0107 C   0  0  0  0  0  0  0  0  0  0  0  0
   31.1054    1.2889   -0.1519 C   0  0  0  0  0  0  0  0  0  0  0  0
   30.4357    2.5497   -0.2947 C   0  0  0  0  0  0  0  0  0  0  0  0
   31.4033    3.4911   -0.4044 C   0  0  0  0  0  0  0  0  0  0  0  0
   32.6598    2.8026   -0.3281 C   0  0  0  0  0  0  0  0  0  0  0  0
   32.4450    1.4674   -0.1750 N   0  0  0  0  0  0  0  0  0  0  0  0
   33.8914    3.4274   -0.4030 C   0  0  0  0  0  0  0  0  0  0  0  0
   35.1197    2.7951   -0.3347 C   0  0  0  0  0  0  0  0  0  0  0  0
   36.3800    3.4759   -0.4180 C   0  0  0  0  0  0  0  0  0  0  0  0
   37.3424    2.5288   -0.3115 C   0  0  0  0  0  0  0  0  0  0  0  0
   36.6657    1.2725   -0.1632 C   0  0  0  0  0  0  0  0  0  0  0  0
   35.3271    1.4589   -0.1809 N   0  0  0  0  0  0  0  0  0  0  0  0
   37.3245    0.0415   -0.0204 C   0  0  0  0  0  0  0  0  0  0  0  0
   36.6591   -1.1859    0.1223 C   0  0  0  0  0  0  0  0  0  0  0  0
   37.3289   -2.4464    0.2676 C   0  0  0  0  0  0  0  0  0  0  0  0
   36.3612   -3.3880    0.3751 C   0  0  0  0  0  0  0  0  0  0  0  0
   35.1046   -2.6999    0.2953 C   0  0  0  0  0  0  0  0  0  0  0  0
   35.3195   -1.3647    0.1422 N   0  0  0  0  0  0  0  0  0  0  0  0
   33.8728   -3.3249    0.3666 C   0  0  0  0  0  0  0  0  0  0  0  0
   32.6447   -2.6928    0.2962 C   0  0  0  0  0  0  0  0  0  0  0  0
   32.4371   -1.3563    0.1448 N   0  0  0  0  0  0  0  0  0  0  0  0
   31.2704   -4.4338    0.4972 H   0  0  0  0  0  0  0  0  0  0  0  0
   29.3560   -2.5463    0.2880 H   0  0  0  0  0  0  0  0  0  0  0  0
   29.3704    2.6754   -0.3075 H   0  0  0  0  0  0  0  0  0  0  0  0
   31.2951    4.5516   -0.5256 H   0  0  0  0  0  0  0  0  0  0  0  0
   33.8943    4.5011   -0.5260 H   0  0  0  0  0  0  0  0  0  0  0  0
   36.4943    4.5354   -0.5414 H   0  0  0  0  0  0  0  0  0  0  0  0
   38.4085    2.6481   -0.3294 H   0  0  0  0  0  0  0  0  0  0  0  0
   38.3942   -2.5718    0.2831 H   0  0  0  0  0  0  0  0  0  0  0  0
   36.4695   -4.4483    0.4971 H   0  0  0  0  0  0  0  0  0  0  0  0
   33.8698   -4.3987    0.4888 H   0  0  0  0  0  0  0  0  0  0  0  0
   49.8930    0.0114   -0.0191 Cu  0  0  0  0  0  0  0  0  0  0  0  0
   47.3885   -3.4073    0.3899 C   0  0  0  0  0  0  0  0  0  0  0  0
   46.4279   -2.4592    0.2770 C   0  0  0  0  0  0  0  0  0  0  0  0
   47.1071   -1.2042    0.1273 C   0  0  0  0  0  0  0  0  0  0  0  0
   46.4507    0.0276   -0.0193 C   0  0  0  0  0  0  0  0  0  0  0  0
   47.1185    1.2532   -0.1659 C   0  0  0  0  0  0  0  0  0  0  0  0
   46.4511    2.5144   -0.3163 C   0  0  0  0  0  0  0  0  0  0  0  0
   47.4206    3.4535   -0.4292 C   0  0  0  0  0  0  0  0  0  0  0  0
   48.6759    2.7632   -0.3472 C   0  0  0  0  0  0  0  0  0  0  0  0
   48.4584    1.4292   -0.1877 N   0  0  0  0  0  0  0  0  0  0  0  0
   49.9089    3.3856   -0.4206 C   0  0  0  0  0  0  0  0  0  0  0  0
   51.1358    2.7519   -0.3432 C   0  0  0  0  0  0  0  0  0  0  0  0
   52.3975    3.4309   -0.4206 C   0  0  0  0  0  0  0  0  0  0  0  0
   53.3581    2.4828   -0.3072 C   0  0  0  0  0  0  0  0  0  0  0  0
   52.6791    1.2274   -0.1610 C   0  0  0  0  0  0  0  0  0  0  0  0
   51.3408    1.4157   -0.1852 N   0  0  0  0  0  0  0  0  0  0  0  0
   53.3355   -0.0048   -0.0189 C   0  0  0  0  0  0  0  0  0  0  0  0
   52.6676   -1.2308    0.1230 C   0  0  0  0  0  0  0  0  0  0  0  0
   53.3348   -2.4925    0.2698 C   0  0  0  0  0  0  0  0  0  0  0  0
   52.3653   -3.4314    0.3836 C   0  0  0  0  0  0  0  0  0  0  0  0
   51.1101   -2.7406    0.3056 C   0  0  0  0  0  0  0  0  0  0  0  0
   51.3277   -1.4066    0.1471 N   0  0  0  0  0  0  0  0  0  0  0  0
   49.8773   -3.3628    0.3825 C   0  0  0  0  0  0  0  0  0  0  0  0
   48.6502   -2.7288    0.3086 C   0  0  0  0  0  0  0  0  0  0  0  0
   48.4453   -1.3927    0.1495 N   0  0  0  0  0  0  0  0  0  0  0  0
   47.2723   -4.4663    0.5160 H   0  0  0  0  0  0  0  0  0  0  0  0
   45.3617   -2.5769    0.2909 H   0  0  0  0  0  0  0  0  0  0  0  0
   45.3860    2.6420   -0.3305 H   0  0  0  0  0  0  0  0  0  0  0  0
   47.3144    4.5135   -0.5560 H   0  0  0  0  0  0  0  0  0  0  0  0
   49.9141    4.4587   -0.5486 H   0  0  0  0  0  0  0  0  0  0  0  0
   52.5136    4.4901   -0.5451 H   0  0  0  0  0  0  0  0  0  0  0  0
   54.4243    2.6008   -0.3190 H   0  0  0  0  0  0  0  0  0  0  0  0
   54.3998   -2.6205    0.2819 H   0  0  0  0  0  0  0  0  0  0  0  0
   52.4714   -4.4917    0.5088 H   0  0  0  0  0  0  0  0  0  0  0  0
   49.8722   -4.4358    0.5105 H   0  0  0  0  0  0  0  0  0  0  0  0
  2  3  2  0  0  0  0
  3  4  1  0  0  0  0
  4  5  4  0  0  0  0
  5  6  4  0  0  0  0
  6  7  1  0  0  0  0
  7  8  2  0  0  0  0
  8  9  1  0  0  0  0
  1 10  1  0  0  0  0
  6 10  4  0  0  0  0
  9 10  4  0  0  0  0
  9 11  4  0  0  0  0
 11 12  4  0  0  0  0
 12 13  1  0  0  0  0
 13 14  2  0  0  0  0
 14 15  1  0  0  0  0
  1 16  1  0  0  0  0
 12 16  4  0  0  0  0
 15 16  4  0  0  0  0
 15 17  4  0  0  0  0
 17 18  4  0  0  0  0
 18 19  1  0  0  0  0
 19 20  2  0  0  0  0
 20 21  1  0  0  0  0
  1 22  1  0  0  0  0
 18 22  4  0  0  0  0
 21 22  4  0  0  0  0
 21 23  4  0  0  0  0
  2 24  1  0  0  0  0
 23 24  4  0  0  0  0
  1 25  1  0  0  0  0
  4 25  4  0  0  0  0
 24 25  4  0  0  0  0
  2 26  1  0  0  0  0
  3 27  1  0  0  0  0
  7 28  1  0  0  0  0
  8 29  1  0  0  0  0
 11 30  1  0  0  0  0
 13 31  1  0  0  0  0
 14 32  1  0  0  0  0
 17 33  1  0  0  0  0
 19 34  1  0  0  0  0
 20 35  1  0  0  0  0
 23 36  1  0  0  0  0
 38 39  2  0  0  0  0
 39 40  1  0  0  0  0
 40 41  4  0  0  0  0
 41 42  4  0  0  0  0
 42 43  1  0  0  0  0
 43 44  2  0  0  0  0
 44 45  1  0  0  0  0
 37 46  1  0  0  0  0
 42 46  4  0  0  0  0
 45 46  4  0  0  0  0
 45 47  4  0  0  0  0
 47 48  4  0  0  0  0
 48 49  1  0  0  0  0
 49 50  2  0  0  0  0
 50 51  1  0  0  0  0
 37 52  1  0  0  0  0
 48 52  4  0  0  0  0
 51 52  4  0  0  0  0
 51 53  4  0  0  0  0
 53 54  4  0  0  0  0
 54 55  1  0  0  0  0
 55 56  2  0  0  0  0
 56 57  1  0  0  0  0
 37 58  1  0  0  0  0
 54 58  4  0  0  0  0
 57 58  4  0  0  0  0
 57 59  4  0  0  0  0
 38 60  1  0  0  0  0
 59 60  4  0  0  0  0
 37 61  1  0  0  0  0
 40 61  4  0  0  0  0
 60 61  4  0  0  0  0
 38 62  1  0  0  0  0
 39 63  1  0  0  0  0
 43 64  1  0  0  0  0
 44 65  1  0  0  0  0
 47 66  1  0  0  0  0
 49 67  1  0  0  0  0
 50 68  1  0  0  0  0
 53 69  1  0  0  0  0
 55 70  1  0  0  0  0
 56 71  1  0  0  0  0
 59 72  1  0  0  0  0
  5 73  1  0  0  0  0
 73 74  3  0  0  0  0
 74 75  4  0  0  0  0
 75 76  3  0  0  0  0
 76 77  4  0  0  0  0
 77 78  3  0  0  0  0
 79 80  3  0  0  0  0
 80 81  4  0  0  0  0
 81 82  3  0  0  0  0
 82 83  4  0  0  0  0
 83 84  3  0  0  0  0
 85 86  3  0  0  0  0
 86 87  4  0  0  0  0
 87 88  3  0  0  0  0
 88 89  4  0  0  0  0
 41 90  1  0  0  0  0
 89 90  3  0  0  0  0
 92 93  2  0  0  0  0
 93 94  1  0  0  0  0
 78 95  1  0  0  0  0
 94 95  4  0  0  0  0
 95 96  4  0  0  0  0
 96 97  1  0  0  0  0
 97 98  2  0  0  0  0
 98 99  1  0  0  0  0
 91100  1  0  0  0  0
 96100  4  0  0  0  0
 99100  4  0  0  0  0
 99101  4  0  0  0  0
101102  4  0  0  0  0
102103  1  0  0  0  0
103104  2  0  0  0  0
104105  1  0  0  0  0
 91106  1  0  0  0  0
102106  4  0  0  0  0
105106  4  0  0  0  0
 79107  1  0  0  0  0
105107  4  0  0  0  0
107108  4  0  0  0  0
108109  1  0  0  0  0
109110  2  0  0  0  0
110111  1  0  0  0  0
 91112  1  0  0  0  0
108112  4  0  0  0  0
111112  4  0  0  0  0
111113  4  0  0  0  0
 92114  1  0  0  0  0
113114  4  0  0  0  0
 91115  1  0  0  0  0
 94115  4  0  0  0  0
114115  4  0  0  0  0
 92116  1  0  0  0  0
 93117  1  0  0  0  0
 97118  1  0  0  0  0
 98119  1  0  0  0  0
101120  1  0  0  0  0
103121  1  0  0  0  0
104122  1  0  0  0  0
109123  1  0  0  0  0
110124  1  0  0  0  0
113125  1  0  0  0  0
127128  2  0  0  0  0
128129  1  0  0  0  0
 84130  1  0  0  0  0
129130  4  0  0  0  0
130131  4  0  0  0  0
131132  1  0  0  0  0
132133  2  0  0  0  0
133134  1  0  0  0  0
126135  1  0  0  0  0
131135  4  0  0  0  0
134135  4  0  0  0  0
134136  4  0  0  0  0
136137  4  0  0  0  0
137138  1  0  0  0  0
138139  2  0  0  0  0
139140  1  0  0  0  0
126141  1  0  0  0  0
137141  4  0  0  0  0
140141  4  0  0  0  0
 85142  1  0  0  0  0
140142  4  0  0  0  0
142143  4  0  0  0  0
143144  1  0  0  0  0
144145  2  0  0  0  0
145146  1  0  0  0  0
126147  1  0  0  0  0
143147  4  0  0  0  0
146147  4  0  0  0  0
146148  4  0  0  0  0
127149  1  0  0  0  0
148149  4  0  0  0  0
126150  1  0  0  0  0
129150  4  0  0  0  0
149150  4  0  0  0  0
127151  1  0  0  0  0
128152  1  0  0  0  0
132153  1  0  0  0  0
133154  1  0  0  0  0
136155  1  0  0  0  0
138156  1  0  0  0  0
139157  1  0  0  0  0
144158  1  0  0  0  0
145159  1  0  0  0  0
148160  1  0  0  0  0
M  END
