
  xtb     11192115213D
 xtb: 6.4.1 (bd6e46d)
118132  0     0  0            999 V2000
   18.3382    3.4205    0.2426 C   0  0  0  0  0  0  0  0  0  0  0  0
   19.2939    2.4719    0.1984 C   0  0  0  0  0  0  0  0  0  0  0  0
   18.5934    1.2053    0.0816 C   0  0  0  0  0  0  0  0  0  0  0  0
   19.2548   -0.0372    0.0092 C   0  0  0  0  0  0  0  0  0  0  0  0
   18.6041   -1.2776   -0.0958 C   0  0  0  0  0  0  0  0  0  0  0  0
   19.2080   -2.5611   -0.1712 C   0  0  0  0  0  0  0  0  0  0  0  0
   18.2047   -3.4817   -0.2702 C   0  0  0  0  0  0  0  0  0  0  0  0
   16.9667   -2.7799   -0.2580 C   0  0  0  0  0  0  0  0  0  0  0  0
   17.2605   -1.4544   -0.1498 N   0  0  0  0  0  0  0  0  0  0  0  0
   15.6990   -3.3363   -0.3442 C   0  0  0  0  0  0  0  0  0  0  0  0
   14.4834   -2.6664   -0.3381 C   0  0  0  0  0  0  0  0  0  0  0  0
   13.2053   -3.3565   -0.4380 C   0  0  0  0  0  0  0  0  0  0  0  0
   12.2582   -2.4012   -0.3990 C   0  0  0  0  0  0  0  0  0  0  0  0
   12.9650   -1.1355   -0.2758 C   0  0  0  0  0  0  0  0  0  0  0  0
   14.2997   -1.3332   -0.2427 N   0  0  0  0  0  0  0  0  0  0  0  0
   12.3202    0.0929   -0.2036 C   0  0  0  0  0  0  0  0  0  0  0  0
   12.9456    1.3248   -0.0881 C   0  0  0  0  0  0  0  0  0  0  0  0
   12.3404    2.6119   -0.0102 C   0  0  0  0  0  0  0  0  0  0  0  0
   13.3404    3.5331    0.0926 C   0  0  0  0  0  0  0  0  0  0  0  0
   14.5821    2.8333    0.0801 C   0  0  0  0  0  0  0  0  0  0  0  0
   14.2914    1.5103   -0.0297 N   0  0  0  0  0  0  0  0  0  0  0  0
   15.8502    3.3891    0.1633 C   0  0  0  0  0  0  0  0  0  0  0  0
   17.0666    2.7231    0.1515 C   0  0  0  0  0  0  0  0  0  0  0  0
   17.2627    1.3860    0.0565 N   0  0  0  0  0  0  0  0  0  0  0  0
   18.4461    4.4848    0.3271 H   0  0  0  0  0  0  0  0  0  0  0  0
   20.3604    2.5797    0.2394 H   0  0  0  0  0  0  0  0  0  0  0  0
   20.2654   -2.7405   -0.1519 H   0  0  0  0  0  0  0  0  0  0  0  0
   18.3026   -4.5472   -0.3458 H   0  0  0  0  0  0  0  0  0  0  0  0
   16.5863   -0.6985   -0.1161 H   0  0  0  0  0  0  0  0  0  0  0  0
   15.6560   -4.4135   -0.4270 H   0  0  0  0  0  0  0  0  0  0  0  0
   13.0916   -4.4202   -0.5246 H   0  0  0  0  0  0  0  0  0  0  0  0
   11.1908   -2.5021   -0.4461 H   0  0  0  0  0  0  0  0  0  0  0  0
   11.2404    0.0882   -0.2407 H   0  0  0  0  0  0  0  0  0  0  0  0
   11.2833    2.7931   -0.0311 H   0  0  0  0  0  0  0  0  0  0  0  0
   13.2418    4.5985    0.1700 H   0  0  0  0  0  0  0  0  0  0  0  0
   14.9626    0.7527   -0.0655 H   0  0  0  0  0  0  0  0  0  0  0  0
   15.8946    4.4664    0.2460 H   0  0  0  0  0  0  0  0  0  0  0  0
   40.3405   -3.3989    0.4785 C   0  0  0  0  0  0  0  0  0  0  0  0
   39.3849   -2.4506    0.4275 C   0  0  0  0  0  0  0  0  0  0  0  0
   40.0837   -1.1888    0.2593 C   0  0  0  0  0  0  0  0  0  0  0  0
   39.4209    0.0514    0.1641 C   0  0  0  0  0  0  0  0  0  0  0  0
   40.0690    1.2910    0.0348 C   0  0  0  0  0  0  0  0  0  0  0  0
   39.4629    2.5738   -0.0361 C   0  0  0  0  0  0  0  0  0  0  0  0
   40.4636    3.4949   -0.1535 C   0  0  0  0  0  0  0  0  0  0  0  0
   41.7021    2.7939   -0.1616 C   0  0  0  0  0  0  0  0  0  0  0  0
   41.4112    1.4686   -0.0419 N   0  0  0  0  0  0  0  0  0  0  0  0
   42.9677    3.3487   -0.2818 C   0  0  0  0  0  0  0  0  0  0  0  0
   44.1808    2.6752   -0.3159 C   0  0  0  0  0  0  0  0  0  0  0  0
   45.4564    3.3605   -0.4676 C   0  0  0  0  0  0  0  0  0  0  0  0
   46.4003    2.4012   -0.4701 C   0  0  0  0  0  0  0  0  0  0  0  0
   45.6944    1.1384   -0.3159 C   0  0  0  0  0  0  0  0  0  0  0  0
   44.3631    1.3413   -0.2268 N   0  0  0  0  0  0  0  0  0  0  0  0
   46.3378   -0.0918   -0.2659 C   0  0  0  0  0  0  0  0  0  0  0  0
   45.7163   -1.3208   -0.1063 C   0  0  0  0  0  0  0  0  0  0  0  0
   46.3235   -2.6072   -0.0337 C   0  0  0  0  0  0  0  0  0  0  0  0
   45.3292   -3.5246    0.1359 C   0  0  0  0  0  0  0  0  0  0  0  0
   44.0888   -2.8234    0.1687 C   0  0  0  0  0  0  0  0  0  0  0  0
   44.3746   -1.5032    0.0190 N   0  0  0  0  0  0  0  0  0  0  0  0
   42.8251   -3.3749    0.3193 C   0  0  0  0  0  0  0  0  0  0  0  0
   41.6100   -2.7068    0.3344 C   0  0  0  0  0  0  0  0  0  0  0  0
   41.4131   -1.3721    0.2088 N   0  0  0  0  0  0  0  0  0  0  0  0
   40.2336   -4.4601    0.5969 H   0  0  0  0  0  0  0  0  0  0  0  0
   38.3195   -2.5554    0.4967 H   0  0  0  0  0  0  0  0  0  0  0  0
   38.4059    2.7526    0.0016 H   0  0  0  0  0  0  0  0  0  0  0  0
   40.3638    4.5601   -0.2301 H   0  0  0  0  0  0  0  0  0  0  0  0
   42.0876    0.7144   -0.0169 H   0  0  0  0  0  0  0  0  0  0  0  0
   43.0104    4.4257   -0.3675 H   0  0  0  0  0  0  0  0  0  0  0  0
   45.5705    4.4238   -0.5581 H   0  0  0  0  0  0  0  0  0  0  0  0
   47.4651    2.4979   -0.5624 H   0  0  0  0  0  0  0  0  0  0  0  0
   47.4147   -0.0908   -0.3537 H   0  0  0  0  0  0  0  0  0  0  0  0
   47.3783   -2.7904   -0.1024 H   0  0  0  0  0  0  0  0  0  0  0  0
   45.4308   -4.5885    0.2296 H   0  0  0  0  0  0  0  0  0  0  0  0
   43.7019   -0.7464    0.0012 H   0  0  0  0  0  0  0  0  0  0  0  0
   42.7829   -4.4498    0.4297 H   0  0  0  0  0  0  0  0  0  0  0  0
   20.6511   -0.0420    0.0362 C   0  0  0  0  0  0  0  0  0  0  0  0
   21.8696   -0.0287    0.0572 C   0  0  0  0  0  0  0  0  0  0  0  0
   23.2103   -0.0213    0.0712 C   0  0  0  0  0  0  0  0  0  0  0  0
   24.4290   -0.0024    0.0778 C   0  0  0  0  0  0  0  0  0  0  0  0
   34.2471    0.0142    0.1564 C   0  0  0  0  0  0  0  0  0  0  0  0
   35.4657    0.0314    0.1795 C   0  0  0  0  0  0  0  0  0  0  0  0
   36.8061    0.0473    0.1889 C   0  0  0  0  0  0  0  0  0  0  0  0
   38.0249    0.0542    0.1910 C   0  0  0  0  0  0  0  0  0  0  0  0
   26.8197   -3.4043    0.5150 C   0  0  0  0  0  0  0  0  0  0  0  0
   25.8405   -2.4866    0.3936 C   0  0  0  0  0  0  0  0  0  0  0  0
   26.5100   -1.2090    0.2341 C   0  0  0  0  0  0  0  0  0  0  0  0
   25.8241    0.0126    0.0797 C   0  0  0  0  0  0  0  0  0  0  0  0
   26.4657    1.2538   -0.0713 C   0  0  0  0  0  0  0  0  0  0  0  0
   25.8625    2.5282   -0.2329 C   0  0  0  0  0  0  0  0  0  0  0  0
   26.8691    3.4443   -0.3480 C   0  0  0  0  0  0  0  0  0  0  0  0
   28.1065    2.7478   -0.2581 C   0  0  0  0  0  0  0  0  0  0  0  0
   27.8104    1.4295   -0.0912 N   0  0  0  0  0  0  0  0  0  0  0  0
   29.3721    3.3143   -0.3280 C   0  0  0  0  0  0  0  0  0  0  0  0
   30.6023    2.6832   -0.2395 C   0  0  0  0  0  0  0  0  0  0  0  0
   31.8575    3.4105   -0.3267 C   0  0  0  0  0  0  0  0  0  0  0  0
   32.8365    2.4940   -0.1954 C   0  0  0  0  0  0  0  0  0  0  0  0
   32.1668    1.2171   -0.0315 C   0  0  0  0  0  0  0  0  0  0  0  0
   30.8316    1.3594   -0.0631 N   0  0  0  0  0  0  0  0  0  0  0  0
   32.8524   -0.0030    0.1362 C   0  0  0  0  0  0  0  0  0  0  0  0
   32.2109   -1.2446    0.2841 C   0  0  0  0  0  0  0  0  0  0  0  0
   32.8143   -2.5185    0.4487 C   0  0  0  0  0  0  0  0  0  0  0  0
   31.8079   -3.4361    0.5530 C   0  0  0  0  0  0  0  0  0  0  0  0
   30.5704   -2.7410    0.4545 C   0  0  0  0  0  0  0  0  0  0  0  0
   30.8664   -1.4220    0.2921 N   0  0  0  0  0  0  0  0  0  0  0  0
   29.3049   -3.3083    0.5160 C   0  0  0  0  0  0  0  0  0  0  0  0
   28.0747   -2.6768    0.4283 C   0  0  0  0  0  0  0  0  0  0  0  0
   27.8453   -1.3522    0.2587 N   0  0  0  0  0  0  0  0  0  0  0  0
   26.7377   -4.4657    0.6504 H   0  0  0  0  0  0  0  0  0  0  0  0
   24.7763   -2.6219    0.4065 H   0  0  0  0  0  0  0  0  0  0  0  0
   24.8051    2.7058   -0.2568 H   0  0  0  0  0  0  0  0  0  0  0  0
   26.7734    4.5042   -0.4822 H   0  0  0  0  0  0  0  0  0  0  0  0
   28.4689    0.6643    0.0054 H   0  0  0  0  0  0  0  0  0  0  0  0
   29.3979    4.3866   -0.4676 H   0  0  0  0  0  0  0  0  0  0  0  0
   31.9397    4.4711   -0.4676 H   0  0  0  0  0  0  0  0  0  0  0  0
   33.9006    2.6296   -0.2048 H   0  0  0  0  0  0  0  0  0  0  0  0
   33.8717   -2.6949    0.4804 H   0  0  0  0  0  0  0  0  0  0  0  0
   31.9040   -4.4961    0.6859 H   0  0  0  0  0  0  0  0  0  0  0  0
   30.2077   -0.6575    0.1909 H   0  0  0  0  0  0  0  0  0  0  0  0
   29.2789   -4.3811    0.6518 H   0  0  0  0  0  0  0  0  0  0  0  0
  1  2  2  0  0  0  0
  2  3  1  0  0  0  0
  3  4  4  0  0  0  0
  4  5  4  0  0  0  0
  5  6  4  0  0  0  0
  6  7  2  0  0  0  0
  7  8  4  0  0  0  0
  5  9  4  0  0  0  0
  8  9  4  0  0  0  0
  8 10  4  0  0  0  0
 10 11  4  0  0  0  0
 11 12  1  0  0  0  0
 12 13  2  0  0  0  0
 13 14  1  0  0  0  0
 11 15  4  0  0  0  0
 14 15  4  0  0  0  0
 14 16  4  0  0  0  0
 16 17  4  0  0  0  0
 17 18  4  0  0  0  0
 18 19  2  0  0  0  0
 19 20  4  0  0  0  0
 17 21  4  0  0  0  0
 20 21  4  0  0  0  0
 20 22  4  0  0  0  0
  1 23  1  0  0  0  0
 22 23  4  0  0  0  0
  3 24  4  0  0  0  0
 23 24  4  0  0  0  0
  1 25  1  0  0  0  0
  2 26  1  0  0  0  0
  6 27  1  0  0  0  0
  7 28  1  0  0  0  0
  9 29  1  0  0  0  0
 10 30  1  0  0  0  0
 12 31  1  0  0  0  0
 13 32  1  0  0  0  0
 16 33  1  0  0  0  0
 18 34  1  0  0  0  0
 19 35  1  0  0  0  0
 21 36  1  0  0  0  0
 22 37  1  0  0  0  0
 38 39  2  0  0  0  0
 39 40  1  0  0  0  0
 40 41  4  0  0  0  0
 41 42  4  0  0  0  0
 42 43  4  0  0  0  0
 43 44  2  0  0  0  0
 44 45  4  0  0  0  0
 42 46  4  0  0  0  0
 45 46  4  0  0  0  0
 45 47  4  0  0  0  0
 47 48  4  0  0  0  0
 48 49  1  0  0  0  0
 49 50  2  0  0  0  0
 50 51  1  0  0  0  0
 48 52  4  0  0  0  0
 51 52  4  0  0  0  0
 51 53  4  0  0  0  0
 53 54  4  0  0  0  0
 54 55  4  0  0  0  0
 55 56  2  0  0  0  0
 56 57  4  0  0  0  0
 54 58  4  0  0  0  0
 57 58  4  0  0  0  0
 57 59  4  0  0  0  0
 38 60  1  0  0  0  0
 59 60  4  0  0  0  0
 40 61  4  0  0  0  0
 60 61  4  0  0  0  0
 38 62  1  0  0  0  0
 39 63  1  0  0  0  0
 43 64  1  0  0  0  0
 44 65  1  0  0  0  0
 46 66  1  0  0  0  0
 47 67  1  0  0  0  0
 49 68  1  0  0  0  0
 50 69  1  0  0  0  0
 53 70  1  0  0  0  0
 55 71  1  0  0  0  0
 56 72  1  0  0  0  0
 58 73  1  0  0  0  0
 59 74  1  0  0  0  0
  4 75  1  0  0  0  0
 75 76  3  0  0  0  0
 76 77  4  0  0  0  0
 77 78  3  0  0  0  0
 79 80  3  0  0  0  0
 80 81  4  0  0  0  0
 41 82  1  0  0  0  0
 81 82  3  0  0  0  0
 83 84  2  0  0  0  0
 84 85  1  0  0  0  0
 78 86  1  0  0  0  0
 85 86  4  0  0  0  0
 86 87  4  0  0  0  0
 87 88  4  0  0  0  0
 88 89  2  0  0  0  0
 89 90  4  0  0  0  0
 87 91  4  0  0  0  0
 90 91  4  0  0  0  0
 90 92  4  0  0  0  0
 92 93  4  0  0  0  0
 93 94  1  0  0  0  0
 94 95  2  0  0  0  0
 95 96  1  0  0  0  0
 93 97  4  0  0  0  0
 96 97  4  0  0  0  0
 79 98  1  0  0  0  0
 96 98  4  0  0  0  0
 98 99  4  0  0  0  0
 99100  4  0  0  0  0
100101  2  0  0  0  0
101102  4  0  0  0  0
 99103  4  0  0  0  0
102103  4  0  0  0  0
102104  4  0  0  0  0
 83105  1  0  0  0  0
104105  4  0  0  0  0
 85106  4  0  0  0  0
105106  4  0  0  0  0
 83107  1  0  0  0  0
 84108  1  0  0  0  0
 88109  1  0  0  0  0
 89110  1  0  0  0  0
 91111  1  0  0  0  0
 92112  1  0  0  0  0
 94113  1  0  0  0  0
 95114  1  0  0  0  0
100115  1  0  0  0  0
101116  1  0  0  0  0
103117  1  0  0  0  0
104118  1  0  0  0  0
M  END
