
  xtb     11212121113D
 xtb: 6.4.1 (bd6e46d)
190214  0     0  0            999 V2000
   39.1423    3.3804    0.6767 C   0  0  0  0  0  0  0  0  0  0  0  0
   40.1081    2.4560    0.5104 C   0  0  0  0  0  0  0  0  0  0  0  0
   39.4234    1.2126    0.2042 C   0  0  0  0  0  0  0  0  0  0  0  0
   40.0991    0.0004   -0.0341 C   0  0  0  0  0  0  0  0  0  0  0  0
   39.4641   -1.2228   -0.3001 C   0  0  0  0  0  0  0  0  0  0  0  0
   40.0831   -2.4733   -0.5682 C   0  0  0  0  0  0  0  0  0  0  0  0
   39.0909   -3.3868   -0.7786 C   0  0  0  0  0  0  0  0  0  0  0  0
   37.8439   -2.7130   -0.6488 C   0  0  0  0  0  0  0  0  0  0  0  0
   38.1220   -1.4117   -0.3596 N   0  0  0  0  0  0  0  0  0  0  0  0
   36.5829   -3.2715   -0.7959 C   0  0  0  0  0  0  0  0  0  0  0  0
   35.3590   -2.6248   -0.6939 C   0  0  0  0  0  0  0  0  0  0  0  0
   34.0887   -3.3130   -0.8736 C   0  0  0  0  0  0  0  0  0  0  0  0
   33.1307   -2.3820   -0.7111 C   0  0  0  0  0  0  0  0  0  0  0  0
   33.8231   -1.1328   -0.4341 C   0  0  0  0  0  0  0  0  0  0  0  0
   35.1602   -1.3166   -0.4306 N   0  0  0  0  0  0  0  0  0  0  0  0
   33.1647    0.0696   -0.2093 C   0  0  0  0  0  0  0  0  0  0  0  0
   33.7761    1.2852    0.0561 C   0  0  0  0  0  0  0  0  0  0  0  0
   33.1552    2.5439    0.2991 C   0  0  0  0  0  0  0  0  0  0  0  0
   34.1439    3.4572    0.5169 C   0  0  0  0  0  0  0  0  0  0  0  0
   35.3942    2.7809    0.4120 C   0  0  0  0  0  0  0  0  0  0  0  0
   35.1197    1.4793    0.1333 N   0  0  0  0  0  0  0  0  0  0  0  0
   36.6552    3.3363    0.5692 C   0  0  0  0  0  0  0  0  0  0  0  0
   37.8794    2.6911    0.4736 C   0  0  0  0  0  0  0  0  0  0  0  0
   38.0906    1.3830    0.1933 N   0  0  0  0  0  0  0  0  0  0  0  0
   39.2383    4.4223    0.9151 H   0  0  0  0  0  0  0  0  0  0  0  0
   41.1721    2.5634    0.5938 H   0  0  0  0  0  0  0  0  0  0  0  0
   41.1425   -2.6357   -0.6045 H   0  0  0  0  0  0  0  0  0  0  0  0
   39.2017   -4.4290   -1.0067 H   0  0  0  0  0  0  0  0  0  0  0  0
   37.4387   -0.6773   -0.2153 H   0  0  0  0  0  0  0  0  0  0  0  0
   36.5531   -4.3288   -1.0204 H   0  0  0  0  0  0  0  0  0  0  0  0
   33.9871   -4.3589   -1.0919 H   0  0  0  0  0  0  0  0  0  0  0  0
   32.0643   -2.4898   -0.7658 H   0  0  0  0  0  0  0  0  0  0  0  0
   32.0849    0.0567   -0.2434 H   0  0  0  0  0  0  0  0  0  0  0  0
   32.0958    2.7124    0.3046 H   0  0  0  0  0  0  0  0  0  0  0  0
   34.0323    4.5024    0.7311 H   0  0  0  0  0  0  0  0  0  0  0  0
   35.8008    0.7419   -0.0014 H   0  0  0  0  0  0  0  0  0  0  0  0
   36.6866    4.3933    0.7955 H   0  0  0  0  0  0  0  0  0  0  0  0
   78.1815   -3.4267   -0.3897 C   0  0  0  0  0  0  0  0  0  0  0  0
   77.2196   -2.4904   -0.2746 C   0  0  0  0  0  0  0  0  0  0  0  0
   77.9115   -1.2241   -0.1121 C   0  0  0  0  0  0  0  0  0  0  0  0
   77.2417    0.0055    0.0373 C   0  0  0  0  0  0  0  0  0  0  0  0
   77.8831    1.2469    0.1706 C   0  0  0  0  0  0  0  0  0  0  0  0
   77.2717    2.5167    0.3509 C   0  0  0  0  0  0  0  0  0  0  0  0
   78.2690    3.4443    0.4414 C   0  0  0  0  0  0  0  0  0  0  0  0
   79.5117    2.7607    0.3224 C   0  0  0  0  0  0  0  0  0  0  0  0
   79.2261    1.4390    0.1618 N   0  0  0  0  0  0  0  0  0  0  0  0
   80.7757    3.3303    0.3645 C   0  0  0  0  0  0  0  0  0  0  0  0
   81.9967    2.6778    0.2650 C   0  0  0  0  0  0  0  0  0  0  0  0
   83.2705    3.3805    0.3208 C   0  0  0  0  0  0  0  0  0  0  0  0
   84.2246    2.4393    0.1985 C   0  0  0  0  0  0  0  0  0  0  0  0
   83.5263    1.1694    0.0705 C   0  0  0  0  0  0  0  0  0  0  0  0
   82.1896    1.3512    0.1131 N   0  0  0  0  0  0  0  0  0  0  0  0
   84.1793   -0.0484   -0.0715 C   0  0  0  0  0  0  0  0  0  0  0  0
   83.5618   -1.2836   -0.1933 C   0  0  0  0  0  0  0  0  0  0  0  0
   84.1761   -2.5599   -0.3435 C   0  0  0  0  0  0  0  0  0  0  0  0
   83.1821   -3.4892   -0.4299 C   0  0  0  0  0  0  0  0  0  0  0  0
   81.9351   -2.8055   -0.3345 C   0  0  0  0  0  0  0  0  0  0  0  0
   82.2168   -1.4836   -0.1920 N   0  0  0  0  0  0  0  0  0  0  0  0
   80.6707   -3.3730   -0.3850 C   0  0  0  0  0  0  0  0  0  0  0  0
   79.4490   -2.7217   -0.3006 C   0  0  0  0  0  0  0  0  0  0  0  0
   79.2443   -1.3931   -0.1356 N   0  0  0  0  0  0  0  0  0  0  0  0
   78.0799   -4.4863   -0.5255 H   0  0  0  0  0  0  0  0  0  0  0  0
   76.1536   -2.6049   -0.3065 H   0  0  0  0  0  0  0  0  0  0  0  0
   76.2141    2.6826    0.4141 H   0  0  0  0  0  0  0  0  0  0  0  0
   78.1644    4.5026    0.5809 H   0  0  0  0  0  0  0  0  0  0  0  0
   79.9043    0.6936    0.0562 H   0  0  0  0  0  0  0  0  0  0  0  0
   80.8108    4.4034    0.4919 H   0  0  0  0  0  0  0  0  0  0  0  0
   83.3770    4.4421    0.4372 H   0  0  0  0  0  0  0  0  0  0  0  0
   85.2918    2.5526    0.1918 H   0  0  0  0  0  0  0  0  0  0  0  0
   85.2595   -0.0321   -0.0883 H   0  0  0  0  0  0  0  0  0  0  0  0
   85.2348   -2.7286   -0.3798 H   0  0  0  0  0  0  0  0  0  0  0  0
   83.2881   -4.5501   -0.5490 H   0  0  0  0  0  0  0  0  0  0  0  0
   81.5403   -0.7357   -0.0976 H   0  0  0  0  0  0  0  0  0  0  0  0
   80.6340   -4.4466   -0.5096 H   0  0  0  0  0  0  0  0  0  0  0  0
   41.4997    0.0098   -0.0092 C   0  0  0  0  0  0  0  0  0  0  0  0
   42.7130    0.0250    0.0055 C   0  0  0  0  0  0  0  0  0  0  0  0
   52.5438   -0.0147    0.0448 C   0  0  0  0  0  0  0  0  0  0  0  0
   53.7579    0.0090    0.0423 C   0  0  0  0  0  0  0  0  0  0  0  0
   63.5924    0.0084    0.0481 C   0  0  0  0  0  0  0  0  0  0  0  0
   64.8062    0.0327    0.0505 C   0  0  0  0  0  0  0  0  0  0  0  0
   74.6277   -0.0144    0.0651 C   0  0  0  0  0  0  0  0  0  0  0  0
   75.8410   -0.0032    0.0530 C   0  0  0  0  0  0  0  0  0  0  0  0
   45.0870   -3.2293    1.1276 C   0  0  0  0  0  0  0  0  0  0  0  0
   44.1140   -2.3466    0.8285 C   0  0  0  0  0  0  0  0  0  0  0  0
   44.7907   -1.1346    0.4053 C   0  0  0  0  0  0  0  0  0  0  0  0
   44.1126    0.0371    0.0178 C   0  0  0  0  0  0  0  0  0  0  0  0
   44.7613    1.2228   -0.3629 C   0  0  0  0  0  0  0  0  0  0  0  0
   44.1681    2.4395   -0.7906 C   0  0  0  0  0  0  0  0  0  0  0  0
   45.1809    3.3102   -1.0752 C   0  0  0  0  0  0  0  0  0  0  0  0
   46.4131    2.6417   -0.8318 C   0  0  0  0  0  0  0  0  0  0  0  0
   46.1074    1.3872   -0.4011 N   0  0  0  0  0  0  0  0  0  0  0  0
   47.6825    3.1707   -1.0207 C   0  0  0  0  0  0  0  0  0  0  0  0
   48.9082    2.5545   -0.8271 C   0  0  0  0  0  0  0  0  0  0  0  0
   50.1664    3.2261   -1.1039 C   0  0  0  0  0  0  0  0  0  0  0  0
   51.1392    2.3396   -0.8161 C   0  0  0  0  0  0  0  0  0  0  0  0
   50.4644    1.1390   -0.3597 C   0  0  0  0  0  0  0  0  0  0  0  0
   49.1302    1.2937   -0.3828 N   0  0  0  0  0  0  0  0  0  0  0  0
   51.1453   -0.0260    0.0472 C   0  0  0  0  0  0  0  0  0  0  0  0
   50.4954   -1.2020    0.4576 C   0  0  0  0  0  0  0  0  0  0  0  0
   51.0864   -2.4099    0.9113 C   0  0  0  0  0  0  0  0  0  0  0  0
   50.0731   -3.2788    1.1998 C   0  0  0  0  0  0  0  0  0  0  0  0
   48.8419   -2.6174    0.9334 C   0  0  0  0  0  0  0  0  0  0  0  0
   49.1493   -1.3677    0.4894 N   0  0  0  0  0  0  0  0  0  0  0  0
   47.5728   -3.1529    1.1045 C   0  0  0  0  0  0  0  0  0  0  0  0
   46.3465   -2.5457    0.8864 C   0  0  0  0  0  0  0  0  0  0  0  0
   46.1256   -1.2822    0.4511 N   0  0  0  0  0  0  0  0  0  0  0  0
   44.9977   -4.2393    1.4792 H   0  0  0  0  0  0  0  0  0  0  0  0
   43.0495   -2.4623    0.8915 H   0  0  0  0  0  0  0  0  0  0  0  0
   43.1128    2.6091   -0.8777 H   0  0  0  0  0  0  0  0  0  0  0  0
   45.0928    4.3201   -1.4258 H   0  0  0  0  0  0  0  0  0  0  0  0
   46.7610    0.6542   -0.1480 H   0  0  0  0  0  0  0  0  0  0  0  0
   47.7159    4.1920   -1.3753 H   0  0  0  0  0  0  0  0  0  0  0  0
   50.2551    4.2307   -1.4708 H   0  0  0  0  0  0  0  0  0  0  0  0
   52.2022    2.4452   -0.9084 H   0  0  0  0  0  0  0  0  0  0  0  0
   52.1406   -2.5757    1.0136 H   0  0  0  0  0  0  0  0  0  0  0  0
   50.1605   -4.2830    1.5666 H   0  0  0  0  0  0  0  0  0  0  0  0
   48.4966   -0.6395    0.2206 H   0  0  0  0  0  0  0  0  0  0  0  0
   47.5399   -4.1735    1.4614 H   0  0  0  0  0  0  0  0  0  0  0  0
   56.1548   -3.4130   -0.1586 C   0  0  0  0  0  0  0  0  0  0  0  0
   55.1763   -2.4874   -0.1263 C   0  0  0  0  0  0  0  0  0  0  0  0
   55.8436   -1.2030   -0.0265 C   0  0  0  0  0  0  0  0  0  0  0  0
   55.1563    0.0256    0.0380 C   0  0  0  0  0  0  0  0  0  0  0  0
   55.8004    1.2728    0.0991 C   0  0  0  0  0  0  0  0  0  0  0  0
   55.2037    2.5568    0.1943 C   0  0  0  0  0  0  0  0  0  0  0  0
   56.2129    3.4764    0.2245 C   0  0  0  0  0  0  0  0  0  0  0  0
   57.4471    2.7722    0.1555 C   0  0  0  0  0  0  0  0  0  0  0  0
   57.1457    1.4467    0.0817 N   0  0  0  0  0  0  0  0  0  0  0  0
   58.7135    3.3403    0.1745 C   0  0  0  0  0  0  0  0  0  0  0  0
   59.9433    2.7030    0.1450 C   0  0  0  0  0  0  0  0  0  0  0  0
   61.1981    3.4335    0.2016 C   0  0  0  0  0  0  0  0  0  0  0  0
   62.1763    2.5076    0.1711 C   0  0  0  0  0  0  0  0  0  0  0  0
   61.5077    1.2223    0.0903 C   0  0  0  0  0  0  0  0  0  0  0  0
   60.1724    1.3693    0.0788 N   0  0  0  0  0  0  0  0  0  0  0  0
   62.1939   -0.0074    0.0449 C   0  0  0  0  0  0  0  0  0  0  0  0
   61.5510   -1.2554   -0.0021 C   0  0  0  0  0  0  0  0  0  0  0  0
   62.1492   -2.5401   -0.0776 C   0  0  0  0  0  0  0  0  0  0  0  0
   61.1400   -3.4596   -0.1138 C   0  0  0  0  0  0  0  0  0  0  0  0
   59.9050   -2.7547   -0.0664 C   0  0  0  0  0  0  0  0  0  0  0  0
   60.2056   -1.4288    0.0019 N   0  0  0  0  0  0  0  0  0  0  0  0
   58.6384   -3.3215   -0.1013 C   0  0  0  0  0  0  0  0  0  0  0  0
   57.4089   -2.6830   -0.0844 C   0  0  0  0  0  0  0  0  0  0  0  0
   57.1789   -1.3498   -0.0091 N   0  0  0  0  0  0  0  0  0  0  0  0
   56.0727   -4.4806   -0.2299 H   0  0  0  0  0  0  0  0  0  0  0  0
   54.1138   -2.6210   -0.1807 H   0  0  0  0  0  0  0  0  0  0  0  0
   54.1488    2.7402    0.2477 H   0  0  0  0  0  0  0  0  0  0  0  0
   56.1209    4.5429    0.2930 H   0  0  0  0  0  0  0  0  0  0  0  0
   57.8007    0.6740    0.0280 H   0  0  0  0  0  0  0  0  0  0  0  0
   58.7405    4.4203    0.2305 H   0  0  0  0  0  0  0  0  0  0  0  0
   61.2809    4.5017    0.2615 H   0  0  0  0  0  0  0  0  0  0  0  0
   63.2395    2.6415    0.2143 H   0  0  0  0  0  0  0  0  0  0  0  0
   63.2050   -2.7235   -0.1138 H   0  0  0  0  0  0  0  0  0  0  0  0
   61.2326   -4.5266   -0.1725 H   0  0  0  0  0  0  0  0  0  0  0  0
   59.5503   -0.6557    0.0424 H   0  0  0  0  0  0  0  0  0  0  0  0
   58.6108   -4.4013   -0.1582 H   0  0  0  0  0  0  0  0  0  0  0  0
   67.1772   -3.0927    1.4895 C   0  0  0  0  0  0  0  0  0  0  0  0
   66.2057   -2.2391    1.1118 C   0  0  0  0  0  0  0  0  0  0  0  0
   66.8837   -1.0819    0.5573 C   0  0  0  0  0  0  0  0  0  0  0  0
   66.2049    0.0443    0.0514 C   0  0  0  0  0  0  0  0  0  0  0  0
   66.8528    1.1845   -0.4516 C   0  0  0  0  0  0  0  0  0  0  0  0
   66.2584    2.3508   -1.0002 C   0  0  0  0  0  0  0  0  0  0  0  0
   67.2696    3.1934   -1.3637 C   0  0  0  0  0  0  0  0  0  0  0  0
   68.5026    2.5567   -1.0494 C   0  0  0  0  0  0  0  0  0  0  0  0
   68.1985    1.3481   -0.5017 N   0  0  0  0  0  0  0  0  0  0  0  0
   69.7713    3.0730   -1.2733 C   0  0  0  0  0  0  0  0  0  0  0  0
   70.9969    2.4822   -1.0107 C   0  0  0  0  0  0  0  0  0  0  0  0
   72.2571    3.1352   -1.3224 C   0  0  0  0  0  0  0  0  0  0  0  0
   73.2288    2.2781   -0.9531 C   0  0  0  0  0  0  0  0  0  0  0  0
   72.5506    1.1129   -0.4158 C   0  0  0  0  0  0  0  0  0  0  0  0
   71.2160    1.2621   -0.4646 N   0  0  0  0  0  0  0  0  0  0  0  0
   73.2279   -0.0204    0.0741 C   0  0  0  0  0  0  0  0  0  0  0  0
   72.5803   -1.1616    0.5737 C   0  0  0  0  0  0  0  0  0  0  0  0
   73.1760   -2.3307    1.1156 C   0  0  0  0  0  0  0  0  0  0  0  0
   72.1650   -3.1692    1.4895 C   0  0  0  0  0  0  0  0  0  0  0  0
   70.9314   -2.5282    1.1863 C   0  0  0  0  0  0  0  0  0  0  0  0
   71.2345   -1.3212    0.6350 N   0  0  0  0  0  0  0  0  0  0  0  0
   69.6625   -3.0389    1.4231 C   0  0  0  0  0  0  0  0  0  0  0  0
   68.4372   -2.4462    1.1645 C   0  0  0  0  0  0  0  0  0  0  0  0
   68.2178   -1.2314    0.6056 N   0  0  0  0  0  0  0  0  0  0  0  0
   67.0866   -4.0602    1.9450 H   0  0  0  0  0  0  0  0  0  0  0  0
   65.1416   -2.3396    1.1999 H   0  0  0  0  0  0  0  0  0  0  0  0
   65.2033    2.5073   -1.1096 H   0  0  0  0  0  0  0  0  0  0  0  0
   67.1799    4.1639   -1.8117 H   0  0  0  0  0  0  0  0  0  0  0  0
   68.8539    0.6464   -0.1756 H   0  0  0  0  0  0  0  0  0  0  0  0
   69.8047    4.0586   -1.7178 H   0  0  0  0  0  0  0  0  0  0  0  0
   72.3476    4.1088   -1.7645 H   0  0  0  0  0  0  0  0  0  0  0  0
   74.2932    2.3824   -1.0349 H   0  0  0  0  0  0  0  0  0  0  0  0
   74.2318   -2.4909    1.2136 H   0  0  0  0  0  0  0  0  0  0  0  0
   72.2552   -4.1397    1.9373 H   0  0  0  0  0  0  0  0  0  0  0  0
   70.5782   -0.6175    0.3151 H   0  0  0  0  0  0  0  0  0  0  0  0
   69.6292   -4.0217    1.8737 H   0  0  0  0  0  0  0  0  0  0  0  0
  1  2  2  0  0  0  0
  2  3  1  0  0  0  0
  3  4  4  0  0  0  0
  4  5  4  0  0  0  0
  5  6  4  0  0  0  0
  6  7  2  0  0  0  0
  7  8  4  0  0  0  0
  5  9  4  0  0  0  0
  8  9  4  0  0  0  0
  8 10  4  0  0  0  0
 10 11  4  0  0  0  0
 11 12  1  0  0  0  0
 12 13  2  0  0  0  0
 13 14  1  0  0  0  0
 11 15  4  0  0  0  0
 14 15  4  0  0  0  0
 14 16  4  0  0  0  0
 16 17  4  0  0  0  0
 17 18  4  0  0  0  0
 18 19  2  0  0  0  0
 19 20  4  0  0  0  0
 17 21  4  0  0  0  0
 20 21  4  0  0  0  0
 20 22  4  0  0  0  0
  1 23  1  0  0  0  0
 22 23  4  0  0  0  0
  3 24  4  0  0  0  0
 23 24  4  0  0  0  0
  1 25  1  0  0  0  0
  2 26  1  0  0  0  0
  6 27  1  0  0  0  0
  7 28  1  0  0  0  0
  9 29  1  0  0  0  0
 10 30  1  0  0  0  0
 12 31  1  0  0  0  0
 13 32  1  0  0  0  0
 16 33  1  0  0  0  0
 18 34  1  0  0  0  0
 19 35  1  0  0  0  0
 21 36  1  0  0  0  0
 22 37  1  0  0  0  0
 38 39  2  0  0  0  0
 39 40  1  0  0  0  0
 40 41  4  0  0  0  0
 41 42  4  0  0  0  0
 42 43  4  0  0  0  0
 43 44  2  0  0  0  0
 44 45  4  0  0  0  0
 42 46  4  0  0  0  0
 45 46  4  0  0  0  0
 45 47  4  0  0  0  0
 47 48  4  0  0  0  0
 48 49  1  0  0  0  0
 49 50  2  0  0  0  0
 50 51  1  0  0  0  0
 48 52  4  0  0  0  0
 51 52  4  0  0  0  0
 51 53  4  0  0  0  0
 53 54  4  0  0  0  0
 54 55  4  0  0  0  0
 55 56  2  0  0  0  0
 56 57  4  0  0  0  0
 54 58  4  0  0  0  0
 57 58  4  0  0  0  0
 57 59  4  0  0  0  0
 38 60  1  0  0  0  0
 59 60  4  0  0  0  0
 40 61  4  0  0  0  0
 60 61  4  0  0  0  0
 38 62  1  0  0  0  0
 39 63  1  0  0  0  0
 43 64  1  0  0  0  0
 44 65  1  0  0  0  0
 46 66  1  0  0  0  0
 47 67  1  0  0  0  0
 49 68  1  0  0  0  0
 50 69  1  0  0  0  0
 53 70  1  0  0  0  0
 55 71  1  0  0  0  0
 56 72  1  0  0  0  0
 58 73  1  0  0  0  0
 59 74  1  0  0  0  0
  4 75  1  0  0  0  0
 75 76  3  0  0  0  0
 77 78  3  0  0  0  0
 79 80  3  0  0  0  0
 41 82  1  0  0  0  0
 81 82  3  0  0  0  0
 83 84  2  0  0  0  0
 84 85  1  0  0  0  0
 76 86  1  0  0  0  0
 85 86  4  0  0  0  0
 86 87  4  0  0  0  0
 87 88  4  0  0  0  0
 88 89  2  0  0  0  0
 89 90  4  0  0  0  0
 87 91  4  0  0  0  0
 90 91  4  0  0  0  0
 90 92  4  0  0  0  0
 92 93  4  0  0  0  0
 93 94  1  0  0  0  0
 94 95  2  0  0  0  0
 95 96  1  0  0  0  0
 93 97  4  0  0  0  0
 96 97  4  0  0  0  0
 77 98  1  0  0  0  0
 96 98  4  0  0  0  0
 98 99  4  0  0  0  0
 99100  4  0  0  0  0
100101  2  0  0  0  0
101102  4  0  0  0  0
 99103  4  0  0  0  0
102103  4  0  0  0  0
102104  4  0  0  0  0
 83105  1  0  0  0  0
104105  4  0  0  0  0
 85106  4  0  0  0  0
105106  4  0  0  0  0
 83107  1  0  0  0  0
 84108  1  0  0  0  0
 88109  1  0  0  0  0
 89110  1  0  0  0  0
 91111  1  0  0  0  0
 92112  1  0  0  0  0
 94113  1  0  0  0  0
 95114  1  0  0  0  0
100115  1  0  0  0  0
101116  1  0  0  0  0
103117  1  0  0  0  0
104118  1  0  0  0  0
119120  2  0  0  0  0
120121  1  0  0  0  0
 78122  1  0  0  0  0
121122  4  0  0  0  0
122123  4  0  0  0  0
123124  4  0  0  0  0
124125  2  0  0  0  0
125126  4  0  0  0  0
123127  4  0  0  0  0
126127  4  0  0  0  0
126128  4  0  0  0  0
128129  4  0  0  0  0
129130  1  0  0  0  0
130131  2  0  0  0  0
131132  1  0  0  0  0
129133  4  0  0  0  0
132133  4  0  0  0  0
 79134  1  0  0  0  0
132134  4  0  0  0  0
134135  4  0  0  0  0
135136  4  0  0  0  0
136137  2  0  0  0  0
137138  4  0  0  0  0
135139  4  0  0  0  0
138139  4  0  0  0  0
138140  4  0  0  0  0
119141  1  0  0  0  0
140141  4  0  0  0  0
121142  4  0  0  0  0
141142  4  0  0  0  0
119143  1  0  0  0  0
120144  1  0  0  0  0
124145  1  0  0  0  0
125146  1  0  0  0  0
127147  1  0  0  0  0
128148  1  0  0  0  0
130149  1  0  0  0  0
131150  1  0  0  0  0
136151  1  0  0  0  0
137152  1  0  0  0  0
139153  1  0  0  0  0
140154  1  0  0  0  0
155156  2  0  0  0  0
156157  1  0  0  0  0
 80158  1  0  0  0  0
157158  4  0  0  0  0
158159  4  0  0  0  0
159160  4  0  0  0  0
160161  2  0  0  0  0
161162  4  0  0  0  0
159163  4  0  0  0  0
162163  4  0  0  0  0
162164  4  0  0  0  0
164165  4  0  0  0  0
165166  1  0  0  0  0
166167  2  0  0  0  0
167168  1  0  0  0  0
165169  4  0  0  0  0
168169  4  0  0  0  0
 81170  1  0  0  0  0
168170  4  0  0  0  0
170171  4  0  0  0  0
171172  4  0  0  0  0
172173  2  0  0  0  0
173174  4  0  0  0  0
171175  4  0  0  0  0
174175  4  0  0  0  0
174176  4  0  0  0  0
155177  1  0  0  0  0
176177  4  0  0  0  0
157178  4  0  0  0  0
177178  4  0  0  0  0
155179  1  0  0  0  0
156180  1  0  0  0  0
160181  1  0  0  0  0
161182  1  0  0  0  0
163183  1  0  0  0  0
164184  1  0  0  0  0
166185  1  0  0  0  0
167186  1  0  0  0  0
172187  1  0  0  0  0
173188  1  0  0  0  0
175189  1  0  0  0  0
176190  1  0  0  0  0
M  END
