74

Fe 9.616747 0.024336 -0.004705
C 11.945738 -3.122458 1.317984
C 12.861845 -2.178250 1.267702
C 12.450666 -1.124346 0.346410
C 13.069536 -0.000000 0.000000
C 12.365494 1.219948 -0.364105
C 12.693604 2.180003 -1.211579
C 11.658825 3.196289 -1.228477
C 10.722557 2.819827 -0.381585
N 11.124547 1.586816 0.182232
C 9.461482 3.464826 -0.002433
C 8.366265 2.830043 0.348327
C 7.292640 3.147999 1.317355
C 6.455077 2.151245 1.240189
C 6.893374 1.147562 0.259737
N 7.998312 1.586415 -0.224556
C 6.282539 -0.105709 -0.153811
C 6.946700 -1.210215 -0.408236
C 6.572851 -2.273157 -1.365763
C 7.521598 -3.166912 -1.276744
C 8.507322 -2.729463 -0.293866
N 8.154276 -1.583657 0.202931
C 9.738210 -3.385533 0.151855
C 10.861252 -2.739672 0.418976
N 11.189852 -1.492231 -0.179428
H 12.006000 -4.032238 1.935530
H 13.778173 -2.218199 1.845750
H 13.620970 2.196799 -1.812722
H 11.675724 4.100977 -1.841098
H 9.413760 4.559629 -0.006211
H 7.239818 4.026724 1.942347
H 5.543446 2.115576 1.857513
H 5.184289 -0.102798 -0.253082
H 5.703995 -2.325622 -2.014713
H 7.518752 -4.083221 -1.875503
H 9.702728 -4.481334 0.263780
C 14.044711 -0.000000 0.000000
C 15.260917 -0.000000 0.000000
Fe 19.724837 -0.009267 -0.163653
C 17.178968 3.228077 1.128197
C 16.252608 2.300903 0.983650
C 16.854621 1.132123 0.326906
C 16.261669 0.000000 -0.000000
C 16.893983 -1.313187 -0.021891
C 16.373320 -2.532748 0.099621
C 17.408867 -3.534031 0.011054
C 18.562242 -2.878562 -0.166658
N 18.275789 -1.507837 -0.190984
C 19.903866 -3.450184 -0.314997
C 21.046060 -2.844954 -0.145651
C 22.324772 -3.263806 0.490905
C 23.124648 -2.258158 0.352696
C 22.476286 -1.132588 -0.356648
N 21.286157 -1.530131 -0.614961
C 22.985611 0.181765 -0.743470
C 22.326229 1.310926 -0.646540
C 22.724036 2.595632 -1.266950
C 21.816839 3.458757 -0.925809
C 20.810281 2.790544 -0.087415
N 21.140205 1.551846 0.050022
C 19.614833 3.361804 0.526145
C 18.448210 2.751418 0.585639
N 18.197195 1.449054 0.101309
H 16.987344 4.210279 1.595973
H 15.210293 2.425755 1.315586
H 15.287304 -2.699773 0.247798
H 17.236791 -4.595541 0.080599
H 19.964794 -4.518300 -0.601076
H 22.477921 -4.227125 0.952008
H 24.146954 -2.260915 0.719664
H 24.019677 0.148436 -1.140416
H 23.600101 2.798311 -1.889918
H 21.856491 4.509997 -1.247437
H 19.701431 4.351479 0.956704
