242

Ni 29.826732 -0.001211 -0.008317
C 32.330004 -3.410926 0.025298
C 33.280640 -2.449408 0.016426
C 32.589622 -1.195253 0.007075
C 33.254296 0.035002 0.004458
C 32.563825 1.250880 0.006230
C 33.228269 2.519311 0.017139
C 32.257573 3.460622 0.020549
C 31.008317 2.760223 0.009200
N 31.211096 1.405758 0.001714
C 29.786795 3.401205 -0.000556
C 28.580568 2.732227 -0.022600
C 27.312086 3.402204 -0.045025
C 26.367152 2.437574 -0.066338
C 27.062477 1.182315 -0.054649
N 28.413910 1.376487 -0.029255
C 26.417050 -0.037369 -0.061099
C 27.087885 -1.243084 -0.039024
C 26.419065 -2.512705 -0.033883
C 27.384162 -3.457009 -0.006666
C 28.638353 -2.760347 0.002285
N 28.443176 -1.408540 -0.016417
C 29.858538 -3.403618 0.020244
C 31.066267 -2.736998 0.018384
N 31.240446 -1.378574 0.007083
H 32.450276 -4.476752 0.034395
H 34.348196 -2.553792 0.017343
H 34.293416 2.646010 0.022672
H 32.355300 4.528746 0.028840
H 29.775647 4.480415 0.004884
H 27.189579 4.468035 -0.044796
H 25.299265 2.538455 -0.086910
H 25.338141 -0.048797 -0.080219
H 25.353464 -2.636206 -0.048395
H 27.284135 -4.525114 0.005463
H 29.870242 -4.482768 0.032211
Ni 109.785742 0.033607 -0.009723
C 107.290578 3.388826 0.629455
C 106.337782 2.448145 0.440849
C 107.025894 1.213417 0.211834
C 106.358133 0.004415 -0.006150
C 107.045549 -1.195672 -0.212037
C 106.378334 -2.445513 -0.420070
C 107.346949 -3.374995 -0.581941
C 108.597753 -2.685520 -0.474906
N 108.397972 -1.350134 -0.245739
C 109.817768 -3.316373 -0.604341
C 111.025410 -2.655527 -0.515378
C 112.292159 -3.312007 -0.666558
C 113.239222 -2.360446 -0.520008
C 112.546992 -1.127207 -0.276595
N 111.195251 -1.320889 -0.279273
C 113.195372 0.071671 -0.060787
C 112.527553 1.253478 0.187459
C 113.199435 2.498262 0.429170
C 112.236623 3.423164 0.632650
C 110.980727 2.740347 0.510505
N 111.172671 1.415043 0.241111
C 109.762022 3.373266 0.641281
C 108.552749 2.722538 0.509942
N 108.375480 1.389124 0.252431
H 107.172744 4.436024 0.829458
H 105.270482 2.554497 0.453285
H 105.312927 -2.569226 -0.434804
H 107.246855 -4.428129 -0.759171
H 109.826460 -4.379555 -0.789870
H 112.412151 -4.360525 -0.859471
H 114.306712 -2.457233 -0.565546
H 114.274240 0.084479 -0.081320
H 114.265341 2.619753 0.437719
H 112.339246 4.470000 0.843881
H 109.752797 4.431870 0.851309
C 34.650814 0.048931 0.004405
C 35.870268 0.056225 -0.000099
C 37.206677 0.062609 -0.002114
C 38.430600 0.069684 -0.003856
C 39.766879 0.071077 -0.006046
C 40.986565 0.071808 -0.010075
C 50.644428 0.044390 -0.018436
C 51.864153 0.039791 -0.015628
C 53.200165 0.036094 -0.016005
C 54.424303 0.036569 -0.013687
C 55.760331 0.034992 -0.017516
C 56.980106 0.035181 -0.019557
C 66.638043 0.038022 -0.016702
C 67.857786 0.034994 -0.013993
C 69.193829 0.035623 -0.013304
C 70.418011 0.037966 -0.011629
C 71.754041 0.037931 -0.012347
C 72.973742 0.041244 -0.014968
C 82.631838 0.046575 -0.022256
C 83.851602 0.044331 -0.023452
C 85.187641 0.043292 -0.023280
C 86.411785 0.041570 -0.021339
C 87.747832 0.040571 -0.021235
C 88.967577 0.034844 -0.022887
C 98.625631 -0.011859 -0.022458
C 99.845270 -0.017032 -0.021710
C 101.181640 -0.019115 -0.021435
C 102.405558 -0.016319 -0.024256
C 103.742062 -0.013602 -0.016788
C 104.961466 -0.004692 -0.009284
Ni 45.815645 0.057760 -0.019602
C 43.335438 -3.348903 0.366421
C 42.376933 -2.400756 0.261128
C 43.057861 -1.149175 0.120458
C 42.382450 0.068262 -0.013260
C 43.064688 1.281458 -0.150003
C 42.390868 2.537067 -0.288824
C 43.354725 3.479154 -0.399637
C 44.608298 2.791303 -0.327289
N 44.415758 1.444019 -0.173531
C 45.825181 3.435384 -0.406911
C 47.038250 2.783397 -0.336310
C 48.295751 3.462939 -0.418967
C 49.254233 2.515300 -0.309284
C 48.573288 1.264428 -0.162474
N 47.223245 1.435288 -0.179602
C 49.248723 0.047896 -0.020794
C 48.566479 -1.164979 0.119899
C 49.240304 -2.419918 0.265102
C 48.276444 -3.362523 0.371036
C 47.022840 -2.675466 0.291438
N 47.215487 -1.328043 0.138127
C 45.806064 -3.320374 0.363312
C 44.592881 -2.668691 0.289476
N 44.407974 -1.320038 0.138248
H 43.224151 -4.409053 0.485351
H 41.310270 -2.512696 0.274662
H 41.324833 2.655467 -0.297763
H 43.249471 4.539852 -0.519204
H 45.828230 4.507632 -0.530420
H 48.407005 4.522449 -0.543558
H 50.320917 2.627002 -0.324578
H 50.306322 -2.537808 0.279590
H 48.381633 -4.423077 0.491838
H 45.802962 -4.392881 0.484520
Ni 61.809053 0.035431 -0.023700
C 59.339640 -3.379763 0.356893
C 58.378076 -2.435093 0.248166
C 59.054966 -1.180834 0.112091
C 58.375805 0.034665 -0.020499
C 59.054426 1.250181 -0.156222
C 58.376647 2.503714 -0.294840
C 59.337518 3.448608 -0.407571
C 60.593235 2.764480 -0.337020
N 60.404887 1.416747 -0.181406
C 61.808008 3.411726 -0.421989
C 63.023181 2.763423 -0.352466
C 64.278483 3.446196 -0.441342
C 65.239967 2.502046 -0.327655
C 64.562990 1.250189 -0.171087
N 63.212413 1.416791 -0.188507
C 65.242338 0.037016 -0.019210
C 64.563864 -1.177015 0.129708
C 65.241518 -2.428573 0.285574
C 64.280576 -3.373956 0.393391
C 63.024897 -2.692034 0.303190
N 63.213373 -1.344813 0.143292
C 61.810121 -3.341420 0.369434
C 60.594893 -2.694760 0.286351
N 60.405589 -1.346779 0.134244
H 59.231819 -4.440430 0.474371
H 57.311779 -2.551014 0.256771
H 57.310263 2.619045 -0.302211
H 59.228904 4.508923 -0.527523
H 61.807647 4.483564 -0.549031
H 64.386357 4.505261 -0.572478
H 66.306291 2.616841 -0.345220
H 66.307872 -2.542526 0.305725
H 64.389087 -4.433321 0.521559
H 61.810459 -4.413581 0.493718
Ni 77.802804 0.043264 -0.023140
C 75.334521 -3.370047 0.380879
C 74.372653 -2.425724 0.271989
C 75.049126 -1.172546 0.124286
C 74.369454 0.041659 -0.017534
C 75.047626 1.256290 -0.162869
C 74.369460 2.508509 -0.311081
C 75.330038 3.453353 -0.426613
C 76.586002 2.770597 -0.347517
N 76.398051 1.423551 -0.185508
C 77.800578 3.418818 -0.427323
C 79.016023 2.771819 -0.350385
C 80.271076 3.455805 -0.433032
C 81.232914 2.512046 -0.318962
C 80.556396 1.259269 -0.168213
N 79.205733 1.425054 -0.188308
C 81.236130 0.045608 -0.022330
C 80.558033 -1.169140 0.122437
C 81.236151 -2.421268 0.271509
C 80.275522 -3.366658 0.382094
C 79.019599 -2.684216 0.299888
N 79.207582 -1.336825 0.141018
C 77.804991 -3.332960 0.375277
C 76.589559 -2.685862 0.299518
N 76.399789 -1.338548 0.141974
H 75.227042 -4.430010 0.504844
H 73.306392 -2.541314 0.286909
H 73.303030 2.623029 -0.322552
H 75.221128 4.512827 -0.553502
H 77.799902 4.490427 -0.556275
H 80.378600 4.515318 -0.560743
H 82.299193 2.627677 -0.332703
H 82.302566 -2.535486 0.286274
H 80.384405 -4.426313 0.507490
H 77.805702 -4.404936 0.501155
Ni 93.796416 0.011479 -0.021795
C 91.309309 -3.385924 0.398468
C 90.352787 -2.436310 0.288779
C 91.036258 -1.188149 0.130754
C 90.363298 0.028646 -0.020686
C 91.048090 1.238840 -0.171290
C 90.376959 2.493819 -0.327944
C 91.342812 3.434038 -0.436891
C 92.594946 2.745627 -0.346363
N 92.399416 1.399518 -0.185450
C 93.813069 3.388733 -0.411076
C 95.024826 2.735750 -0.325922
C 96.283671 3.414482 -0.392716
C 97.240197 2.464831 -0.283126
C 96.556720 1.213703 -0.151019
N 95.206929 1.386590 -0.175982
C 97.229636 -0.005731 -0.023526
C 96.544884 -1.218452 0.104350
C 97.215955 -2.476348 0.235720
C 96.250074 -3.416363 0.346479
C 94.998026 -2.724968 0.281864
N 95.193461 -1.377820 0.130812
C 93.779816 -3.365533 0.369503
C 92.568175 -2.710138 0.306190
N 92.385941 -1.362242 0.144395
H 91.195893 -4.444484 0.528991
H 89.285912 -2.545170 0.309631
H 89.311195 2.613298 -0.347921
H 91.239867 4.493841 -0.566035
H 93.818495 4.460916 -0.535064
H 96.397159 4.474792 -0.508166
H 98.307084 2.575371 -0.289188
H 98.281700 -2.597537 0.240475
H 96.353021 -4.477740 0.461878
H 93.774493 -4.437667 0.493910
