
  xtb     11192115233D
 xtb: 6.4.1 (bd6e46d)
185224  0     0  0            999 V2000
   33.7005    0.0270   -0.0156 Fe  0  0  0  0  0  0  0  0  0  0  0  0
   36.1772   -2.6320    2.1098 C   0  0  0  0  0  0  0  0  0  0  0  0
   37.1744   -1.8941    1.5684 C   0  0  0  0  0  0  0  0  0  0  0  0
   36.5443   -0.9042    0.7500 C   0  0  0  0  0  0  0  0  0  0  0  0
   37.2283    0.0511   -0.0067 C   0  0  0  0  0  0  0  0  0  0  0  0
   36.5343    0.9992   -0.7630 C   0  0  0  0  0  0  0  0  0  0  0  0
   37.1548    2.0026   -1.5724 C   0  0  0  0  0  0  0  0  0  0  0  0
   36.1502    2.7291   -2.1155 C   0  0  0  0  0  0  0  0  0  0  0  0
   34.9220    2.1606   -1.6398 C   0  0  0  0  0  0  0  0  0  0  0  0
   35.1776    1.0951   -0.8174 N   0  0  0  0  0  0  0  0  0  0  0  0
   33.6841    2.6634   -1.9900 C   0  0  0  0  0  0  0  0  0  0  0  0
   32.4525    2.1743   -1.6020 C   0  0  0  0  0  0  0  0  0  0  0  0
   31.2136    2.7668   -2.0243 C   0  0  0  0  0  0  0  0  0  0  0  0
   30.2204    2.0262   -1.4831 C   0  0  0  0  0  0  0  0  0  0  0  0
   30.8556    0.9835   -0.7308 C   0  0  0  0  0  0  0  0  0  0  0  0
   32.2142    1.0877   -0.8072 N   0  0  0  0  0  0  0  0  0  0  0  0
   30.1907   -0.0035   -0.0310 C   0  0  0  0  0  0  0  0  0  0  0  0
   30.8662   -0.9777    0.6764 C   0  0  0  0  0  0  0  0  0  0  0  0
   30.2422   -2.0301    1.4246 C   0  0  0  0  0  0  0  0  0  0  0  0
   31.2429   -2.7514    1.9777 C   0  0  0  0  0  0  0  0  0  0  0  0
   32.4752   -2.1379    1.5664 C   0  0  0  0  0  0  0  0  0  0  0  0
   32.2256   -1.0575    0.7663 N   0  0  0  0  0  0  0  0  0  0  0  0
   33.7114   -2.6052    1.9665 C   0  0  0  0  0  0  0  0  0  0  0  0
   34.9438   -2.0841    1.6238 C   0  0  0  0  0  0  0  0  0  0  0  0
   35.1888   -1.0189    0.7979 N   0  0  0  0  0  0  0  0  0  0  0  0
   36.2502   -3.4682    2.7779 H   0  0  0  0  0  0  0  0  0  0  0  0
   38.2338   -1.9863    1.7060 H   0  0  0  0  0  0  0  0  0  0  0  0
   38.2136    2.1113   -1.7020 H   0  0  0  0  0  0  0  0  0  0  0  0
   36.2148    3.5703   -2.7784 H   0  0  0  0  0  0  0  0  0  0  0  0
   33.6801    3.5275   -2.6392 H   0  0  0  0  0  0  0  0  0  0  0  0
   31.1382    3.6331   -2.6531 H   0  0  0  0  0  0  0  0  0  0  0  0
   29.1589    2.1545   -1.5717 H   0  0  0  0  0  0  0  0  0  0  0  0
   29.1118   -0.0135   -0.0369 H   0  0  0  0  0  0  0  0  0  0  0  0
   29.1823   -2.1771    1.5028 H   0  0  0  0  0  0  0  0  0  0  0  0
   31.1768   -3.6175    2.6077 H   0  0  0  0  0  0  0  0  0  0  0  0
   33.7159   -3.4673    2.6182 H   0  0  0  0  0  0  0  0  0  0  0  0
   77.9976    0.0357   -0.0123 Fe  0  0  0  0  0  0  0  0  0  0  0  0
   75.5532    2.8197    1.9880 C   0  0  0  0  0  0  0  0  0  0  0  0
   74.5468    2.0805    1.4658 C   0  0  0  0  0  0  0  0  0  0  0  0
   75.1657    1.0428    0.6994 C   0  0  0  0  0  0  0  0  0  0  0  0
   74.4706    0.0621   -0.0124 C   0  0  0  0  0  0  0  0  0  0  0  0
   75.1515   -0.9280   -0.7252 C   0  0  0  0  0  0  0  0  0  0  0  0
   74.5173   -1.9560   -1.4923 C   0  0  0  0  0  0  0  0  0  0  0  0
   75.5127   -2.7108   -2.0136 C   0  0  0  0  0  0  0  0  0  0  0  0
   76.7485   -2.1361   -1.5659 C   0  0  0  0  0  0  0  0  0  0  0  0
   76.5070   -1.0395   -0.7811 N   0  0  0  0  0  0  0  0  0  0  0  0
   77.9803   -2.6602   -1.9065 C   0  0  0  0  0  0  0  0  0  0  0  0
   79.2178   -2.1718   -1.5374 C   0  0  0  0  0  0  0  0  0  0  0  0
   80.4493   -2.7894   -1.9458 C   0  0  0  0  0  0  0  0  0  0  0  0
   81.4517   -2.0487   -1.4222 C   0  0  0  0  0  0  0  0  0  0  0  0
   80.8297   -0.9805   -0.6948 C   0  0  0  0  0  0  0  0  0  0  0  0
   79.4699   -1.0684   -0.7702 N   0  0  0  0  0  0  0  0  0  0  0  0
   81.5072    0.0104   -0.0128 C   0  0  0  0  0  0  0  0  0  0  0  0
   80.8444    1.0105    0.6702 C   0  0  0  0  0  0  0  0  0  0  0  0
   81.4820    2.0684    1.3990 C   0  0  0  0  0  0  0  0  0  0  0  0
   80.4906    2.8227    1.9241 C   0  0  0  0  0  0  0  0  0  0  0  0
   79.2502    2.2241    1.5148 C   0  0  0  0  0  0  0  0  0  0  0  0
   79.4861    1.1180    0.7461 N   0  0  0  0  0  0  0  0  0  0  0  0
   78.0199    2.7309    1.8834 C   0  0  0  0  0  0  0  0  0  0  0  0
   76.7805    2.2262    1.5411 C   0  0  0  0  0  0  0  0  0  0  0  0
   76.5228    1.1339    0.7557 N   0  0  0  0  0  0  0  0  0  0  0  0
   75.4905    3.6851    2.6192 H   0  0  0  0  0  0  0  0  0  0  0  0
   73.4877    2.2014    1.5833 H   0  0  0  0  0  0  0  0  0  0  0  0
   73.4567   -2.0604   -1.6114 H   0  0  0  0  0  0  0  0  0  0  0  0
   75.4370   -3.5752   -2.6446 H   0  0  0  0  0  0  0  0  0  0  0  0
   77.9736   -3.5436   -2.5292 H   0  0  0  0  0  0  0  0  0  0  0  0
   80.5134   -3.6716   -2.5534 H   0  0  0  0  0  0  0  0  0  0  0  0
   82.5115   -2.1924   -1.5076 H   0  0  0  0  0  0  0  0  0  0  0  0
   82.5861    0.0026   -0.0133 H   0  0  0  0  0  0  0  0  0  0  0  0
   82.5438    2.1965    1.4846 H   0  0  0  0  0  0  0  0  0  0  0  0
   80.5677    3.7028    2.5333 H   0  0  0  0  0  0  0  0  0  0  0  0
   78.0262    3.6137    2.5071 H   0  0  0  0  0  0  0  0  0  0  0  0
   38.6294    0.0569   -0.0070 C   0  0  0  0  0  0  0  0  0  0  0  0
   39.8421    0.0597   -0.0110 C   0  0  0  0  0  0  0  0  0  0  0  0
   49.7059    0.0138   -0.0154 C   0  0  0  0  0  0  0  0  0  0  0  0
   50.9187    0.0036   -0.0136 C   0  0  0  0  0  0  0  0  0  0  0  0
   60.7809    0.0197   -0.0281 C   0  0  0  0  0  0  0  0  0  0  0  0
   61.9939    0.0314   -0.0229 C   0  0  0  0  0  0  0  0  0  0  0  0
   71.8569    0.0715   -0.0101 C   0  0  0  0  0  0  0  0  0  0  0  0
   73.0693    0.0693   -0.0109 C   0  0  0  0  0  0  0  0  0  0  0  0
   44.7743    0.0382   -0.0116 Fe  0  0  0  0  0  0  0  0  0  0  0  0
   42.2956   -3.2307    0.9263 C   0  0  0  0  0  0  0  0  0  0  0  0
   41.2982   -2.3627    0.6364 C   0  0  0  0  0  0  0  0  0  0  0  0
   41.9278   -1.1196    0.3119 C   0  0  0  0  0  0  0  0  0  0  0  0
   41.2428    0.0550   -0.0122 C   0  0  0  0  0  0  0  0  0  0  0  0
   41.9384    1.2231   -0.3368 C   0  0  0  0  0  0  0  0  0  0  0  0
   41.3205    2.4713   -0.6637 C   0  0  0  0  0  0  0  0  0  0  0  0
   42.3262    3.3303   -0.9520 C   0  0  0  0  0  0  0  0  0  0  0  0
   43.5520    2.6028   -0.7933 C   0  0  0  0  0  0  0  0  0  0  0  0
   43.2942    1.3149   -0.4029 N   0  0  0  0  0  0  0  0  0  0  0  0
   44.7893    3.1644   -1.0398 C   0  0  0  0  0  0  0  0  0  0  0  0
   46.0210    2.5555   -0.9024 C   0  0  0  0  0  0  0  0  0  0  0  0
   47.2534    3.2235   -1.2059 C   0  0  0  0  0  0  0  0  0  0  0  0
   48.2508    2.3517   -0.9271 C   0  0  0  0  0  0  0  0  0  0  0  0
   47.6211    1.1593   -0.4490 C   0  0  0  0  0  0  0  0  0  0  0  0
   46.2666    1.2851   -0.4517 N   0  0  0  0  0  0  0  0  0  0  0  0
   48.3057    0.0200   -0.0159 C   0  0  0  0  0  0  0  0  0  0  0  0
   47.6106   -1.1121    0.4188 C   0  0  0  0  0  0  0  0  0  0  0  0
   48.2291   -2.3111    0.8951 C   0  0  0  0  0  0  0  0  0  0  0  0
   47.2235   -3.1717    1.1786 C   0  0  0  0  0  0  0  0  0  0  0  0
   45.9973   -2.4908    0.8785 C   0  0  0  0  0  0  0  0  0  0  0  0
   46.2548   -1.2235    0.4256 N   0  0  0  0  0  0  0  0  0  0  0  0
   44.7597   -3.0870    1.0184 C   0  0  0  0  0  0  0  0  0  0  0  0
   43.5281   -2.5139    0.7707 C   0  0  0  0  0  0  0  0  0  0  0  0
   43.2826   -1.2236    0.3803 N   0  0  0  0  0  0  0  0  0  0  0  0
   42.2232   -4.2608    1.2176 H   0  0  0  0  0  0  0  0  0  0  0  0
   40.2391   -2.5296    0.6262 H   0  0  0  0  0  0  0  0  0  0  0  0
   40.2628    2.6472   -0.6576 H   0  0  0  0  0  0  0  0  0  0  0  0
   42.2638    4.3606   -1.2450 H   0  0  0  0  0  0  0  0  0  0  0  0
   44.7940    4.1913   -1.3773 H   0  0  0  0  0  0  0  0  0  0  0  0
   47.3260    4.2255   -1.5826 H   0  0  0  0  0  0  0  0  0  0  0  0
   49.3098    2.4793   -1.0367 H   0  0  0  0  0  0  0  0  0  0  0  0
   49.2871   -2.4502    1.0000 H   0  0  0  0  0  0  0  0  0  0  0  0
   47.2866   -4.1742    1.5558 H   0  0  0  0  0  0  0  0  0  0  0  0
   44.7545   -4.1135    1.3572 H   0  0  0  0  0  0  0  0  0  0  0  0
   55.8494    0.0099   -0.0165 Fe  0  0  0  0  0  0  0  0  0  0  0  0
   53.3921   -3.4051   -0.1090 C   0  0  0  0  0  0  0  0  0  0  0  0
   52.3891   -2.4961   -0.1300 C   0  0  0  0  0  0  0  0  0  0  0  0
   53.0107   -1.2093   -0.0611 C   0  0  0  0  0  0  0  0  0  0  0  0
   52.3189    0.0044   -0.0135 C   0  0  0  0  0  0  0  0  0  0  0  0
   53.0071    1.2202    0.0352 C   0  0  0  0  0  0  0  0  0  0  0  0
   52.3819    2.5049    0.1093 C   0  0  0  0  0  0  0  0  0  0  0  0
   53.3821    3.4169    0.0888 C   0  0  0  0  0  0  0  0  0  0  0  0
   54.6116    2.6829    0.0077 C   0  0  0  0  0  0  0  0  0  0  0  0
   54.3619    1.3358   -0.0079 N   0  0  0  0  0  0  0  0  0  0  0  0
   55.8441    3.2997   -0.0772 C   0  0  0  0  0  0  0  0  0  0  0  0
   57.0784    2.6840   -0.1414 C   0  0  0  0  0  0  0  0  0  0  0  0
   58.3052    3.4182   -0.2547 C   0  0  0  0  0  0  0  0  0  0  0  0
   59.3079    2.5088   -0.2467 C   0  0  0  0  0  0  0  0  0  0  0  0
   58.6875    1.2259   -0.1211 C   0  0  0  0  0  0  0  0  0  0  0  0
   57.3326    1.3390   -0.0769 N   0  0  0  0  0  0  0  0  0  0  0  0
   59.3808    0.0155   -0.0242 C   0  0  0  0  0  0  0  0  0  0  0  0
   58.6923   -1.1973    0.0755 C   0  0  0  0  0  0  0  0  0  0  0  0
   59.3172   -2.4784    0.1967 C   0  0  0  0  0  0  0  0  0  0  0  0
   58.3173   -3.3909    0.2093 C   0  0  0  0  0  0  0  0  0  0  0  0
   57.0876   -2.6604    0.1031 C   0  0  0  0  0  0  0  0  0  0  0  0
   57.3375   -1.3147    0.0383 N   0  0  0  0  0  0  0  0  0  0  0  0
   55.8548   -3.2799    0.0460 C   0  0  0  0  0  0  0  0  0  0  0  0
   54.6198   -2.6673   -0.0337 C   0  0  0  0  0  0  0  0  0  0  0  0
   54.3659   -1.3208   -0.0208 N   0  0  0  0  0  0  0  0  0  0  0  0
   53.3263   -4.4755   -0.1411 H   0  0  0  0  0  0  0  0  0  0  0  0
   51.3312   -2.6587   -0.1946 H   0  0  0  0  0  0  0  0  0  0  0  0
   51.3238    2.6641    0.1779 H   0  0  0  0  0  0  0  0  0  0  0  0
   53.3133    4.4870    0.1248 H   0  0  0  0  0  0  0  0  0  0  0  0
   55.8425    4.3804   -0.0967 H   0  0  0  0  0  0  0  0  0  0  0  0
   58.3707    4.4864   -0.3305 H   0  0  0  0  0  0  0  0  0  0  0  0
   60.3648    2.6688   -0.3275 H   0  0  0  0  0  0  0  0  0  0  0  0
   60.3752   -2.6353    0.2712 H   0  0  0  0  0  0  0  0  0  0  0  0
   58.3865   -4.4590    0.2833 H   0  0  0  0  0  0  0  0  0  0  0  0
   55.8566   -4.3606    0.0664 H   0  0  0  0  0  0  0  0  0  0  0  0
   66.9260    0.0542   -0.0227 Fe  0  0  0  0  0  0  0  0  0  0  0  0
   64.4779   -3.2673   -0.8535 C   0  0  0  0  0  0  0  0  0  0  0  0
   63.4726   -2.3776   -0.6797 C   0  0  0  0  0  0  0  0  0  0  0  0
   64.0900   -1.1342   -0.3341 C   0  0  0  0  0  0  0  0  0  0  0  0
   63.3941    0.0385   -0.0254 C   0  0  0  0  0  0  0  0  0  0  0  0
   64.0793    1.2178    0.2819 C   0  0  0  0  0  0  0  0  0  0  0  0
   63.4505    2.4561    0.6250 C   0  0  0  0  0  0  0  0  0  0  0  0
   64.4477    3.3552    0.7980 C   0  0  0  0  0  0  0  0  0  0  0  0
   65.6795    2.6580    0.5674 C   0  0  0  0  0  0  0  0  0  0  0  0
   65.4338    1.3441    0.2662 N   0  0  0  0  0  0  0  0  0  0  0  0
   66.9111    3.2799    0.6276 C   0  0  0  0  0  0  0  0  0  0  0  0
   68.1482    2.6932    0.4489 C   0  0  0  0  0  0  0  0  0  0  0  0
   69.3746    3.4340    0.5202 C   0  0  0  0  0  0  0  0  0  0  0  0
   70.3804    2.5456    0.3427 C   0  0  0  0  0  0  0  0  0  0  0  0
   69.7616    1.2672    0.1684 C   0  0  0  0  0  0  0  0  0  0  0  0
   68.4058    1.3673    0.2186 N   0  0  0  0  0  0  0  0  0  0  0  0
   70.4560    0.0680   -0.0111 C   0  0  0  0  0  0  0  0  0  0  0  0
   69.7716   -1.1366   -0.1943 C   0  0  0  0  0  0  0  0  0  0  0  0
   70.4012   -2.4104   -0.3635 C   0  0  0  0  0  0  0  0  0  0  0  0
   69.4035   -3.3063   -0.5492 C   0  0  0  0  0  0  0  0  0  0  0  0
   68.1712   -2.5747   -0.4875 C   0  0  0  0  0  0  0  0  0  0  0  0
   68.4169   -1.2470   -0.2549 N   0  0  0  0  0  0  0  0  0  0  0  0
   66.9401   -3.1712   -0.6752 C   0  0  0  0  0  0  0  0  0  0  0  0
   65.7032   -2.5597   -0.6196 C   0  0  0  0  0  0  0  0  0  0  0  0
   65.4455   -1.2484   -0.3173 N   0  0  0  0  0  0  0  0  0  0  0  0
   64.4148   -4.3058   -1.1156 H   0  0  0  0  0  0  0  0  0  0  0  0
   62.4155   -2.5250   -0.7811 H   0  0  0  0  0  0  0  0  0  0  0  0
   62.3922    2.5944    0.7253 H   0  0  0  0  0  0  0  0  0  0  0  0
   64.3750    4.3934    1.0585 H   0  0  0  0  0  0  0  0  0  0  0  0
   66.9062    4.3397    0.8402 H   0  0  0  0  0  0  0  0  0  0  0  0
   69.4371    4.4924    0.6846 H   0  0  0  0  0  0  0  0  0  0  0  0
   71.4386    2.7183    0.3201 H   0  0  0  0  0  0  0  0  0  0  0  0
   71.4603   -2.5755   -0.3310 H   0  0  0  0  0  0  0  0  0  0  0  0
   69.4753   -4.3642   -0.7126 H   0  0  0  0  0  0  0  0  0  0  0  0
   66.9451   -4.2307   -0.8893 H   0  0  0  0  0  0  0  0  0  0  0  0
  2  3  2  0  0  0  0
  3  4  1  0  0  0  0
  4  5  4  0  0  0  0
  5  6  4  0  0  0  0
  6  7  1  0  0  0  0
  7  8  2  0  0  0  0
  8  9  1  0  0  0  0
  1 10  1  0  0  0  0
  6 10  4  0  0  0  0
  9 10  4  0  0  0  0
  9 11  4  0  0  0  0
 11 12  4  0  0  0  0
 12 13  1  0  0  0  0
 13 14  2  0  0  0  0
 14 15  1  0  0  0  0
  1 16  1  0  0  0  0
 12 16  4  0  0  0  0
 15 16  4  0  0  0  0
 15 17  4  0  0  0  0
 17 18  4  0  0  0  0
 18 19  1  0  0  0  0
 19 20  2  0  0  0  0
 20 21  1  0  0  0  0
  1 22  1  0  0  0  0
 18 22  4  0  0  0  0
 21 22  4  0  0  0  0
 21 23  4  0  0  0  0
  2 24  1  0  0  0  0
 23 24  4  0  0  0  0
  1 25  1  0  0  0  0
  4 25  4  0  0  0  0
 24 25  4  0  0  0  0
  2 26  1  0  0  0  0
  3 27  1  0  0  0  0
  7 28  1  0  0  0  0
  8 29  1  0  0  0  0
 11 30  1  0  0  0  0
 13 31  1  0  0  0  0
 14 32  1  0  0  0  0
 17 33  1  0  0  0  0
 19 34  1  0  0  0  0
 20 35  1  0  0  0  0
 23 36  1  0  0  0  0
 38 39  2  0  0  0  0
 39 40  1  0  0  0  0
 40 41  4  0  0  0  0
 41 42  4  0  0  0  0
 42 43  1  0  0  0  0
 43 44  2  0  0  0  0
 44 45  1  0  0  0  0
 37 46  1  0  0  0  0
 42 46  4  0  0  0  0
 45 46  4  0  0  0  0
 45 47  4  0  0  0  0
 47 48  4  0  0  0  0
 48 49  1  0  0  0  0
 49 50  2  0  0  0  0
 50 51  1  0  0  0  0
 37 52  1  0  0  0  0
 48 52  4  0  0  0  0
 51 52  4  0  0  0  0
 51 53  4  0  0  0  0
 53 54  4  0  0  0  0
 54 55  1  0  0  0  0
 55 56  2  0  0  0  0
 56 57  1  0  0  0  0
 37 58  1  0  0  0  0
 54 58  4  0  0  0  0
 57 58  4  0  0  0  0
 57 59  4  0  0  0  0
 38 60  1  0  0  0  0
 59 60  4  0  0  0  0
 37 61  1  0  0  0  0
 40 61  4  0  0  0  0
 60 61  4  0  0  0  0
 38 62  1  0  0  0  0
 39 63  1  0  0  0  0
 43 64  1  0  0  0  0
 44 65  1  0  0  0  0
 47 66  1  0  0  0  0
 49 67  1  0  0  0  0
 50 68  1  0  0  0  0
 53 69  1  0  0  0  0
 55 70  1  0  0  0  0
 56 71  1  0  0  0  0
 59 72  1  0  0  0  0
  5 73  1  0  0  0  0
 73 74  3  0  0  0  0
 75 76  3  0  0  0  0
 77 78  3  0  0  0  0
 41 80  1  0  0  0  0
 79 80  3  0  0  0  0
 82 83  2  0  0  0  0
 83 84  1  0  0  0  0
 74 85  1  0  0  0  0
 84 85  4  0  0  0  0
 85 86  4  0  0  0  0
 86 87  1  0  0  0  0
 87 88  2  0  0  0  0
 88 89  1  0  0  0  0
 81 90  1  0  0  0  0
 86 90  4  0  0  0  0
 89 90  4  0  0  0  0
 89 91  4  0  0  0  0
 91 92  4  0  0  0  0
 92 93  1  0  0  0  0
 93 94  2  0  0  0  0
 94 95  1  0  0  0  0
 81 96  1  0  0  0  0
 92 96  4  0  0  0  0
 95 96  4  0  0  0  0
 75 97  1  0  0  0  0
 95 97  4  0  0  0  0
 97 98  4  0  0  0  0
 98 99  1  0  0  0  0
 99100  2  0  0  0  0
100101  1  0  0  0  0
 81102  1  0  0  0  0
 98102  4  0  0  0  0
101102  4  0  0  0  0
101103  4  0  0  0  0
 82104  1  0  0  0  0
103104  4  0  0  0  0
 81105  1  0  0  0  0
 84105  4  0  0  0  0
104105  4  0  0  0  0
 82106  1  0  0  0  0
 83107  1  0  0  0  0
 87108  1  0  0  0  0
 88109  1  0  0  0  0
 91110  1  0  0  0  0
 93111  1  0  0  0  0
 94112  1  0  0  0  0
 99113  1  0  0  0  0
100114  1  0  0  0  0
103115  1  0  0  0  0
117118  2  0  0  0  0
118119  1  0  0  0  0
 76120  1  0  0  0  0
119120  4  0  0  0  0
120121  4  0  0  0  0
121122  1  0  0  0  0
122123  2  0  0  0  0
123124  1  0  0  0  0
116125  1  0  0  0  0
121125  4  0  0  0  0
124125  4  0  0  0  0
124126  4  0  0  0  0
126127  4  0  0  0  0
127128  1  0  0  0  0
128129  2  0  0  0  0
129130  1  0  0  0  0
116131  1  0  0  0  0
127131  4  0  0  0  0
130131  4  0  0  0  0
 77132  1  0  0  0  0
130132  4  0  0  0  0
132133  4  0  0  0  0
133134  1  0  0  0  0
134135  2  0  0  0  0
135136  1  0  0  0  0
116137  1  0  0  0  0
133137  4  0  0  0  0
136137  4  0  0  0  0
136138  4  0  0  0  0
117139  1  0  0  0  0
138139  4  0  0  0  0
116140  1  0  0  0  0
119140  4  0  0  0  0
139140  4  0  0  0  0
117141  1  0  0  0  0
118142  1  0  0  0  0
122143  1  0  0  0  0
123144  1  0  0  0  0
126145  1  0  0  0  0
128146  1  0  0  0  0
129147  1  0  0  0  0
134148  1  0  0  0  0
135149  1  0  0  0  0
138150  1  0  0  0  0
152153  2  0  0  0  0
153154  1  0  0  0  0
 78155  1  0  0  0  0
154155  4  0  0  0  0
155156  4  0  0  0  0
156157  1  0  0  0  0
157158  2  0  0  0  0
158159  1  0  0  0  0
151160  1  0  0  0  0
156160  4  0  0  0  0
159160  4  0  0  0  0
159161  4  0  0  0  0
161162  4  0  0  0  0
162163  1  0  0  0  0
163164  2  0  0  0  0
164165  1  0  0  0  0
151166  1  0  0  0  0
162166  4  0  0  0  0
165166  4  0  0  0  0
 79167  1  0  0  0  0
165167  4  0  0  0  0
167168  4  0  0  0  0
168169  1  0  0  0  0
169170  2  0  0  0  0
170171  1  0  0  0  0
151172  1  0  0  0  0
168172  4  0  0  0  0
171172  4  0  0  0  0
171173  4  0  0  0  0
152174  1  0  0  0  0
173174  4  0  0  0  0
151175  1  0  0  0  0
154175  4  0  0  0  0
174175  4  0  0  0  0
152176  1  0  0  0  0
153177  1  0  0  0  0
157178  1  0  0  0  0
158179  1  0  0  0  0
161180  1  0  0  0  0
163181  1  0  0  0  0
164182  1  0  0  0  0
169183  1  0  0  0  0
170184  1  0  0  0  0
173185  1  0  0  0  0
M  END
