152

C 30.353305 3.510869 0.789285
C 31.243283 2.570610 0.591090
C 30.581782 1.310535 0.290283
C 30.940220 0.004873 0.001602
C 30.115041 -1.126199 -0.083615
C 30.570607 -2.334924 0.497692
C 29.597912 -3.267470 0.297537
C 28.566819 -2.599769 -0.405450
N 28.903544 -1.318909 -0.622364
C 27.408858 -3.325884 -0.737167
C 26.090757 -2.883189 -0.623632
C 24.778411 -3.485323 -0.720612
C 23.856783 -2.538675 -0.514527
C 24.553669 -1.292845 -0.277796
N 25.874742 -1.572597 -0.357481
C 24.154427 0.009153 -0.009793
C 24.987039 1.145829 0.066116
C 24.552896 2.347818 -0.544025
C 25.548409 3.264207 -0.352069
C 26.562560 2.590964 0.371862
N 26.197363 1.323142 0.610686
C 27.732201 3.297920 0.693362
C 29.047455 2.894395 0.623346
N 29.237077 1.583292 0.326944
H 30.520570 4.539413 1.027875
H 32.313542 2.693947 0.640108
H 31.531128 -2.520626 1.016269
H 29.634794 -4.324080 0.622864
H 28.300259 -0.551499 -1.169884
H 27.497249 -4.361311 -1.115514
H 24.579736 -4.546024 -0.929356
H 22.787373 -2.730609 -0.533760
H 23.079484 0.098422 0.127952
H 23.599241 2.539376 -1.072822
H 25.533987 4.314436 -0.698510
H 26.790688 0.565698 1.182683
H 27.663693 4.355325 1.050078
C 57.659004 -3.492754 0.825656
C 56.769026 -2.554604 0.617705
C 57.430527 -1.297721 0.303828
C 57.072089 0.004873 0.001602
C 57.897268 1.134999 -0.095357
C 57.441702 2.349695 0.473365
C 58.414397 3.280112 0.263535
C 59.445490 2.605146 -0.432480
N 59.108765 1.322103 -0.636079
C 60.603451 3.327778 -0.771720
C 61.921552 2.886285 -0.653594
C 63.233898 3.487379 -0.756821
C 64.155526 2.542923 -0.540916
C 63.458640 1.299618 -0.291259
N 62.137567 1.578528 -0.373845
C 63.857882 0.000475 -0.009748
C 63.025270 -1.135352 0.077962
C 63.459413 -2.343613 -0.519662
C 62.463900 -3.257959 -0.318199
C 61.449749 -2.577233 0.398701
N 61.814946 -1.306999 0.624345
C 60.280108 -3.280812 0.727526
C 58.964855 -2.878037 0.653323
N 58.775232 -1.570082 0.343320
H 57.491739 -4.518764 1.074915
H 55.698767 -2.677425 0.668002
H 56.481181 2.540773 0.989985
H 58.377515 4.340044 0.577871
H 59.712050 0.549047 -1.175599
H 60.515060 4.359219 -1.160800
H 63.432574 4.545855 -0.976571
H 65.224936 2.734647 -0.562141
H 64.932825 -0.087359 0.128917
H 64.413068 -2.540653 -1.046441
H 62.478322 -4.311729 -0.653714
H 61.221621 -0.543656 1.188444
H 60.348616 -4.334455 1.095204
C 33.167664 0.004873 0.001602
C 34.383869 0.004873 0.001602
C 43.398052 0.004873 0.001602
C 44.614257 0.004873 0.001602
C 53.628440 0.004873 0.001602
C 54.844645 0.004873 0.001602
C 36.099017 -3.594687 0.000112
C 35.224467 -2.599783 -0.010190
C 35.895931 -1.321000 0.002999
C 35.498900 -0.005414 -0.001780
C 36.310092 1.138909 -0.155906
C 35.831067 2.191426 -0.967971
C 36.818152 3.134178 -0.959440
C 37.865423 2.632384 -0.146637
N 37.526570 1.426016 0.326109
C 39.025801 3.410366 0.007713
C 40.346790 2.952493 -0.021680
C 41.659359 3.580626 -0.082808
C 42.573472 2.625562 -0.085392
C 41.899925 1.338689 -0.026202
N 40.587867 1.627288 0.008588
C 42.302209 -0.005414 -0.001780
C 41.470055 -1.119203 0.180501
C 41.910013 -2.150860 1.043813
C 40.911831 -3.074201 1.048433
C 39.888915 -2.594263 0.195004
N 40.256092 -1.413016 -0.315504
C 38.732006 -3.369671 0.037935
C 37.411231 -2.950192 0.021250
N 37.234840 -1.611989 0.022151
H 35.930498 -4.656854 -0.005291
H 34.136639 -2.785819 -0.027217
H 34.866989 2.266797 -1.502287
H 36.780005 4.105293 -1.491883
H 38.134249 0.788916 1.014738
H 38.970701 4.496628 0.151828
H 41.877786 4.648619 -0.121138
H 43.649787 2.771606 -0.125019
H 42.864022 -2.215272 1.601361
H 40.937249 -4.019518 1.623753
H 39.669016 -0.793559 -1.039154
H 38.792724 -4.481410 -0.076193
C 46.329405 -3.594687 0.000112
C 45.454855 -2.599783 -0.010190
C 46.126319 -1.321000 0.002999
C 45.729288 -0.005414 -0.001780
C 46.540480 1.138909 -0.155906
C 46.061455 2.191426 -0.967971
C 47.048540 3.134178 -0.959440
C 48.095811 2.632384 -0.146637
N 47.756958 1.426016 0.326109
C 49.256188 3.410366 0.007713
C 50.577178 2.952493 -0.021680
C 51.889747 3.580626 -0.082808
C 52.803860 2.625562 -0.085392
C 52.130313 1.338689 -0.026202
N 50.818255 1.627288 0.008588
C 52.532597 -0.005414 -0.001780
C 51.700442 -1.119203 0.180501
C 52.140401 -2.150860 1.043813
C 51.142219 -3.074201 1.048433
C 50.119303 -2.594263 0.195004
N 50.486480 -1.413016 -0.315504
C 48.962394 -3.369671 0.037935
C 47.641618 -2.950192 0.021250
N 47.465228 -1.611989 0.022151
H 46.160886 -4.656854 -0.005291
H 44.367027 -2.785819 -0.027217
H 45.097377 2.266797 -1.502287
H 47.010393 4.105293 -1.491883
H 48.364636 0.788916 1.014738
H 49.201089 4.496628 0.151828
H 52.108174 4.648619 -0.121138
H 53.880175 2.771606 -0.125019
H 53.094410 -2.215272 1.601361
H 51.167637 -4.019518 1.623753
H 49.899404 -0.793559 -1.039154
H 49.023112 -4.481410 -0.076193
