
  xtb     11202116583D
 xtb: 6.4.1 (bd6e46d)
271326  0     0  0            999 V2000
   43.4828    0.0085   -0.0064 Co  0  0  0  0  0  0  0  0  0  0  0  0
   45.9784   -3.4012    0.0743 C   0  0  0  0  0  0  0  0  0  0  0  0
   46.9307   -2.4419    0.0374 C   0  0  0  0  0  0  0  0  0  0  0  0
   46.2406   -1.1886    0.0103 C   0  0  0  0  0  0  0  0  0  0  0  0
   46.9052    0.0392   -0.0107 C   0  0  0  0  0  0  0  0  0  0  0  0
   46.2187    1.2549   -0.0002 C   0  0  0  0  0  0  0  0  0  0  0  0
   46.8863    2.5205    0.0184 C   0  0  0  0  0  0  0  0  0  0  0  0
   45.9170    3.4628    0.0495 C   0  0  0  0  0  0  0  0  0  0  0  0
   44.6685    2.7627    0.0418 C   0  0  0  0  0  0  0  0  0  0  0  0
   44.8645    1.4067    0.0127 N   0  0  0  0  0  0  0  0  0  0  0  0
   43.4486    3.4035    0.0457 C   0  0  0  0  0  0  0  0  0  0  0  0
   42.2427    2.7387    0.0016 C   0  0  0  0  0  0  0  0  0  0  0  0
   40.9774    3.4123   -0.0326 C   0  0  0  0  0  0  0  0  0  0  0  0
   40.0322    2.4498   -0.0958 C   0  0  0  0  0  0  0  0  0  0  0  0
   40.7270    1.1953   -0.0914 C   0  0  0  0  0  0  0  0  0  0  0  0
   42.0796    1.3818   -0.0334 N   0  0  0  0  0  0  0  0  0  0  0  0
   40.0822   -0.0224   -0.1236 C   0  0  0  0  0  0  0  0  0  0  0  0
   40.7487   -1.2281   -0.0815 C   0  0  0  0  0  0  0  0  0  0  0  0
   40.0765   -2.4948   -0.0757 C   0  0  0  0  0  0  0  0  0  0  0  0
   41.0388   -3.4397   -0.0059 C   0  0  0  0  0  0  0  0  0  0  0  0
   42.2918   -2.7434    0.0223 C   0  0  0  0  0  0  0  0  0  0  0  0
   42.1045   -1.3899   -0.0228 N   0  0  0  0  0  0  0  0  0  0  0  0
   43.5095   -3.3861    0.0704 C   0  0  0  0  0  0  0  0  0  0  0  0
   44.7177   -2.7236    0.0618 C   0  0  0  0  0  0  0  0  0  0  0  0
   44.8893   -1.3646    0.0238 N   0  0  0  0  0  0  0  0  0  0  0  0
   46.0959   -4.4670    0.1036 H   0  0  0  0  0  0  0  0  0  0  0  0
   47.9981   -2.5470    0.0315 H   0  0  0  0  0  0  0  0  0  0  0  0
   47.9516    2.6447    0.0120 H   0  0  0  0  0  0  0  0  0  0  0  0
   46.0153    4.5307    0.0721 H   0  0  0  0  0  0  0  0  0  0  0  0
   43.4389    4.4826    0.0705 H   0  0  0  0  0  0  0  0  0  0  0  0
   40.8568    4.4781   -0.0135 H   0  0  0  0  0  0  0  0  0  0  0  0
   38.9651    2.5520   -0.1381 H   0  0  0  0  0  0  0  0  0  0  0  0
   39.0040   -0.0323   -0.1692 H   0  0  0  0  0  0  0  0  0  0  0  0
   39.0114   -2.6164   -0.1164 H   0  0  0  0  0  0  0  0  0  0  0  0
   40.9373   -4.5074    0.0213 H   0  0  0  0  0  0  0  0  0  0  0  0
   43.5191   -4.4650    0.1025 H   0  0  0  0  0  0  0  0  0  0  0  0
  124.0467    0.0398   -0.0044 Co  0  0  0  0  0  0  0  0  0  0  0  0
  121.5593    3.4028    0.5982 C   0  0  0  0  0  0  0  0  0  0  0  0
  120.6049    2.4648    0.4042 C   0  0  0  0  0  0  0  0  0  0  0  0
  121.2919    1.2278    0.1902 C   0  0  0  0  0  0  0  0  0  0  0  0
  120.6243    0.0182   -0.0110 C   0  0  0  0  0  0  0  0  0  0  0  0
  121.3077   -1.1871   -0.1822 C   0  0  0  0  0  0  0  0  0  0  0  0
  120.6371   -2.4396   -0.3538 C   0  0  0  0  0  0  0  0  0  0  0  0
  121.6043   -3.3756   -0.4842 C   0  0  0  0  0  0  0  0  0  0  0  0
  122.8544   -2.6837   -0.3977 C   0  0  0  0  0  0  0  0  0  0  0  0
  122.6616   -1.3404   -0.2073 N   0  0  0  0  0  0  0  0  0  0  0  0
  124.0724   -3.3163   -0.5203 C   0  0  0  0  0  0  0  0  0  0  0  0
  125.2794   -2.6539   -0.4697 C   0  0  0  0  0  0  0  0  0  0  0  0
  126.5423   -3.3126   -0.6333 C   0  0  0  0  0  0  0  0  0  0  0  0
  127.4899   -2.3557   -0.5325 C   0  0  0  0  0  0  0  0  0  0  0  0
  126.7989   -1.1207   -0.3007 C   0  0  0  0  0  0  0  0  0  0  0  0
  125.4460   -1.3119   -0.2688 N   0  0  0  0  0  0  0  0  0  0  0  0
  127.4473    0.0809   -0.1124 C   0  0  0  0  0  0  0  0  0  0  0  0
  126.7843    1.2618    0.1436 C   0  0  0  0  0  0  0  0  0  0  0  0
  127.4601    2.5049    0.3767 C   0  0  0  0  0  0  0  0  0  0  0  0
  126.4997    3.4281    0.5990 C   0  0  0  0  0  0  0  0  0  0  0  0
  125.2445    2.7435    0.4924 C   0  0  0  0  0  0  0  0  0  0  0  0
  125.4286    1.4167    0.2185 N   0  0  0  0  0  0  0  0  0  0  0  0
  124.0281    3.3760    0.6277 C   0  0  0  0  0  0  0  0  0  0  0  0
  122.8183    2.7300    0.4933 C   0  0  0  0  0  0  0  0  0  0  0  0
  122.6435    1.3946    0.2405 N   0  0  0  0  0  0  0  0  0  0  0  0
  121.4443    4.4515    0.7920 H   0  0  0  0  0  0  0  0  0  0  0  0
  119.5379    2.5737    0.4061 H   0  0  0  0  0  0  0  0  0  0  0  0
  119.5715   -2.5604   -0.3675 H   0  0  0  0  0  0  0  0  0  0  0  0
  121.5033   -4.4335   -0.6298 H   0  0  0  0  0  0  0  0  0  0  0  0
  124.0796   -4.3843   -0.6768 H   0  0  0  0  0  0  0  0  0  0  0  0
  126.6599   -4.3653   -0.8037 H   0  0  0  0  0  0  0  0  0  0  0  0
  128.5563   -2.4506   -0.6002 H   0  0  0  0  0  0  0  0  0  0  0  0
  128.5257    0.0952   -0.1539 H   0  0  0  0  0  0  0  0  0  0  0  0
  128.5259    2.6267    0.3687 H   0  0  0  0  0  0  0  0  0  0  0  0
  126.6040    4.4744    0.8116 H   0  0  0  0  0  0  0  0  0  0  0  0
  124.0210    4.4349    0.8366 H   0  0  0  0  0  0  0  0  0  0  0  0
   48.3032    0.0508   -0.0245 C   0  0  0  0  0  0  0  0  0  0  0  0
   49.5207    0.0580   -0.0270 C   0  0  0  0  0  0  0  0  0  0  0  0
   50.8632    0.0631   -0.0305 C   0  0  0  0  0  0  0  0  0  0  0  0
   52.0809    0.0639   -0.0336 C   0  0  0  0  0  0  0  0  0  0  0  0
   61.7309    0.0555   -0.0218 C   0  0  0  0  0  0  0  0  0  0  0  0
   62.9487    0.0527   -0.0226 C   0  0  0  0  0  0  0  0  0  0  0  0
   64.2909    0.0514   -0.0232 C   0  0  0  0  0  0  0  0  0  0  0  0
   65.5088    0.0500   -0.0228 C   0  0  0  0  0  0  0  0  0  0  0  0
   75.1601    0.0437   -0.0139 C   0  0  0  0  0  0  0  0  0  0  0  0
   76.3781    0.0433   -0.0144 C   0  0  0  0  0  0  0  0  0  0  0  0
   77.7204    0.0427   -0.0162 C   0  0  0  0  0  0  0  0  0  0  0  0
   78.9383    0.0415   -0.0166 C   0  0  0  0  0  0  0  0  0  0  0  0
   88.5909    0.0512   -0.0160 C   0  0  0  0  0  0  0  0  0  0  0  0
   89.8089    0.0489   -0.0160 C   0  0  0  0  0  0  0  0  0  0  0  0
   91.1512    0.0476   -0.0167 C   0  0  0  0  0  0  0  0  0  0  0  0
   92.3692    0.0459   -0.0145 C   0  0  0  0  0  0  0  0  0  0  0  0
  102.0207    0.0389   -0.0241 C   0  0  0  0  0  0  0  0  0  0  0  0
  103.2386    0.0374   -0.0249 C   0  0  0  0  0  0  0  0  0  0  0  0
  104.5808    0.0357   -0.0243 C   0  0  0  0  0  0  0  0  0  0  0  0
  105.7986    0.0310   -0.0225 C   0  0  0  0  0  0  0  0  0  0  0  0
  115.4484    0.0068   -0.0348 C   0  0  0  0  0  0  0  0  0  0  0  0
  116.6660    0.0065   -0.0348 C   0  0  0  0  0  0  0  0  0  0  0  0
  118.0086    0.0082   -0.0305 C   0  0  0  0  0  0  0  0  0  0  0  0
  119.2261    0.0115   -0.0231 C   0  0  0  0  0  0  0  0  0  0  0  0
   56.9059    0.0604   -0.0239 Co  0  0  0  0  0  0  0  0  0  0  0  0
   54.4345   -3.3492    0.3471 C   0  0  0  0  0  0  0  0  0  0  0  0
   53.4741   -2.4037    0.2368 C   0  0  0  0  0  0  0  0  0  0  0  0
   54.1540   -1.1517    0.1018 C   0  0  0  0  0  0  0  0  0  0  0  0
   53.4785    0.0633   -0.0305 C   0  0  0  0  0  0  0  0  0  0  0  0
   54.1565    1.2773   -0.1585 C   0  0  0  0  0  0  0  0  0  0  0  0
   53.4791    2.5306   -0.2935 C   0  0  0  0  0  0  0  0  0  0  0  0
   54.4415    3.4749   -0.3971 C   0  0  0  0  0  0  0  0  0  0  0  0
   55.6945    2.7876   -0.3241 C   0  0  0  0  0  0  0  0  0  0  0  0
   55.5090    1.4378   -0.1764 N   0  0  0  0  0  0  0  0  0  0  0  0
   56.9094    3.4324   -0.3990 C   0  0  0  0  0  0  0  0  0  0  0  0
   58.1229    2.7843   -0.3302 C   0  0  0  0  0  0  0  0  0  0  0  0
   59.3772    3.4684   -0.4104 C   0  0  0  0  0  0  0  0  0  0  0  0
   60.3377    2.5222   -0.3050 C   0  0  0  0  0  0  0  0  0  0  0  0
   59.6579    1.2713   -0.1615 C   0  0  0  0  0  0  0  0  0  0  0  0
   58.3057    1.4346   -0.1781 N   0  0  0  0  0  0  0  0  0  0  0  0
   60.3336    0.0571   -0.0218 C   0  0  0  0  0  0  0  0  0  0  0  0
   59.6554   -1.1557    0.1190 C   0  0  0  0  0  0  0  0  0  0  0  0
   60.3326   -2.4076    0.2658 C   0  0  0  0  0  0  0  0  0  0  0  0
   59.3702   -3.3515    0.3732 C   0  0  0  0  0  0  0  0  0  0  0  0
   58.1173   -2.6652    0.2903 C   0  0  0  0  0  0  0  0  0  0  0  0
   58.3029   -1.3162    0.1350 N   0  0  0  0  0  0  0  0  0  0  0  0
   56.9024   -3.3108    0.3580 C   0  0  0  0  0  0  0  0  0  0  0  0
   55.6889   -2.6641    0.2777 C   0  0  0  0  0  0  0  0  0  0  0  0
   55.5062   -1.3143    0.1262 N   0  0  0  0  0  0  0  0  0  0  0  0
   54.3263   -4.4099    0.4645 H   0  0  0  0  0  0  0  0  0  0  0  0
   52.4077   -2.5171    0.2441 H   0  0  0  0  0  0  0  0  0  0  0  0
   52.4129    2.6456   -0.3052 H   0  0  0  0  0  0  0  0  0  0  0  0
   54.3354    4.5360   -0.5123 H   0  0  0  0  0  0  0  0  0  0  0  0
   56.9105    4.5052   -0.5184 H   0  0  0  0  0  0  0  0  0  0  0  0
   59.4854    4.5287   -0.5308 H   0  0  0  0  0  0  0  0  0  0  0  0
   61.4041    2.6349   -0.3197 H   0  0  0  0  0  0  0  0  0  0  0  0
   61.3988   -2.5225    0.2815 H   0  0  0  0  0  0  0  0  0  0  0  0
   59.4761   -4.4118    0.4964 H   0  0  0  0  0  0  0  0  0  0  0  0
   56.9013   -4.3834    0.4800 H   0  0  0  0  0  0  0  0  0  0  0  0
   70.3342    0.0467   -0.0197 Co  0  0  0  0  0  0  0  0  0  0  0  0
   67.8636   -3.3599    0.3835 C   0  0  0  0  0  0  0  0  0  0  0  0
   66.9029   -2.4149    0.2720 C   0  0  0  0  0  0  0  0  0  0  0  0
   67.5822   -1.1643    0.1232 C   0  0  0  0  0  0  0  0  0  0  0  0
   66.9061    0.0492   -0.0212 C   0  0  0  0  0  0  0  0  0  0  0  0
   67.5840    1.2617   -0.1645 C   0  0  0  0  0  0  0  0  0  0  0  0
   66.9067    2.5135   -0.3125 C   0  0  0  0  0  0  0  0  0  0  0  0
   67.8689    3.4570   -0.4236 C   0  0  0  0  0  0  0  0  0  0  0  0
   69.1219    2.7707   -0.3425 C   0  0  0  0  0  0  0  0  0  0  0  0
   68.9365    1.4222   -0.1830 N   0  0  0  0  0  0  0  0  0  0  0  0
   70.3368    3.4152   -0.4197 C   0  0  0  0  0  0  0  0  0  0  0  0
   71.5506    2.7685   -0.3433 C   0  0  0  0  0  0  0  0  0  0  0  0
   72.8046    3.4530   -0.4248 C   0  0  0  0  0  0  0  0  0  0  0  0
   73.7655    2.5084   -0.3107 C   0  0  0  0  0  0  0  0  0  0  0  0
   73.0864    1.2578   -0.1614 C   0  0  0  0  0  0  0  0  0  0  0  0
   71.7341    1.4199   -0.1820 N   0  0  0  0  0  0  0  0  0  0  0  0
   73.7627    0.0444   -0.0163 C   0  0  0  0  0  0  0  0  0  0  0  0
   73.0845   -1.1683    0.1250 C   0  0  0  0  0  0  0  0  0  0  0  0
   73.7617   -2.4203    0.2711 C   0  0  0  0  0  0  0  0  0  0  0  0
   72.7994   -3.3642    0.3796 C   0  0  0  0  0  0  0  0  0  0  0  0
   71.5464   -2.6777    0.2993 C   0  0  0  0  0  0  0  0  0  0  0  0
   71.7320   -1.3289    0.1424 N   0  0  0  0  0  0  0  0  0  0  0  0
   70.3316   -3.3225    0.3758 C   0  0  0  0  0  0  0  0  0  0  0  0
   69.1178   -2.6757    0.3014 C   0  0  0  0  0  0  0  0  0  0  0  0
   68.9344   -1.3269    0.1420 N   0  0  0  0  0  0  0  0  0  0  0  0
   67.7558   -4.4196    0.5095 H   0  0  0  0  0  0  0  0  0  0  0  0
   65.8364   -2.5280    0.2863 H   0  0  0  0  0  0  0  0  0  0  0  0
   65.8404    2.6283   -0.3263 H   0  0  0  0  0  0  0  0  0  0  0  0
   67.7627    4.5170   -0.5486 H   0  0  0  0  0  0  0  0  0  0  0  0
   70.3378    4.4872   -0.5471 H   0  0  0  0  0  0  0  0  0  0  0  0
   72.9122    4.5126   -0.5521 H   0  0  0  0  0  0  0  0  0  0  0  0
   74.8319    2.6219   -0.3237 H   0  0  0  0  0  0  0  0  0  0  0  0
   74.8280   -2.5353    0.2854 H   0  0  0  0  0  0  0  0  0  0  0  0
   72.9054   -4.4244    0.5024 H   0  0  0  0  0  0  0  0  0  0  0  0
   70.3308   -4.3947    0.5014 H   0  0  0  0  0  0  0  0  0  0  0  0
   83.7646    0.0457   -0.0218 Co  0  0  0  0  0  0  0  0  0  0  0  0
   81.3003   -3.3656    0.3788 C   0  0  0  0  0  0  0  0  0  0  0  0
   80.3376   -2.4222    0.2695 C   0  0  0  0  0  0  0  0  0  0  0  0
   81.0144   -1.1700    0.1229 C   0  0  0  0  0  0  0  0  0  0  0  0
   80.3357    0.0425   -0.0187 C   0  0  0  0  0  0  0  0  0  0  0  0
   81.0119    1.2560   -0.1635 C   0  0  0  0  0  0  0  0  0  0  0  0
   80.3325    2.5066   -0.3123 C   0  0  0  0  0  0  0  0  0  0  0  0
   81.2933    3.4514   -0.4258 C   0  0  0  0  0  0  0  0  0  0  0  0
   82.5474    2.7671   -0.3448 C   0  0  0  0  0  0  0  0  0  0  0  0
   82.3641    1.4185   -0.1839 N   0  0  0  0  0  0  0  0  0  0  0  0
   83.7611    3.4138   -0.4222 C   0  0  0  0  0  0  0  0  0  0  0  0
   84.9762    2.7695   -0.3451 C   0  0  0  0  0  0  0  0  0  0  0  0
   86.2289    3.4565   -0.4262 C   0  0  0  0  0  0  0  0  0  0  0  0
   87.1916    2.5137   -0.3123 C   0  0  0  0  0  0  0  0  0  0  0  0
   86.5149    1.2617   -0.1634 C   0  0  0  0  0  0  0  0  0  0  0  0
   85.1623    1.4213   -0.1839 N   0  0  0  0  0  0  0  0  0  0  0  0
   87.1935    0.0497   -0.0186 C   0  0  0  0  0  0  0  0  0  0  0  0
   86.5174   -1.1643    0.1228 C   0  0  0  0  0  0  0  0  0  0  0  0
   87.1967   -2.4152    0.2690 C   0  0  0  0  0  0  0  0  0  0  0  0
   86.2360   -3.3606    0.3779 C   0  0  0  0  0  0  0  0  0  0  0  0
   84.9818   -2.6762    0.2973 C   0  0  0  0  0  0  0  0  0  0  0  0
   85.1651   -1.3271    0.1403 N   0  0  0  0  0  0  0  0  0  0  0  0
   83.7681   -3.3232    0.3726 C   0  0  0  0  0  0  0  0  0  0  0  0
   82.5530   -2.6787    0.2977 C   0  0  0  0  0  0  0  0  0  0  0  0
   82.3669   -1.3300    0.1404 N   0  0  0  0  0  0  0  0  0  0  0  0
   81.1946   -4.4258    0.5025 H   0  0  0  0  0  0  0  0  0  0  0  0
   79.2713   -2.5375    0.2837 H   0  0  0  0  0  0  0  0  0  0  0  0
   79.2661    2.6199   -0.3253 H   0  0  0  0  0  0  0  0  0  0  0  0
   81.1854    4.5111   -0.5523 H   0  0  0  0  0  0  0  0  0  0  0  0
   83.7600    4.4857   -0.5500 H   0  0  0  0  0  0  0  0  0  0  0  0
   86.3345    4.5163   -0.5530 H   0  0  0  0  0  0  0  0  0  0  0  0
   88.2578    2.6292   -0.3253 H   0  0  0  0  0  0  0  0  0  0  0  0
   88.2632   -2.5283    0.2831 H   0  0  0  0  0  0  0  0  0  0  0  0
   86.3438   -4.4206    0.5011 H   0  0  0  0  0  0  0  0  0  0  0  0
   83.7692   -4.3954    0.4978 H   0  0  0  0  0  0  0  0  0  0  0  0
   97.1951    0.0423   -0.0198 Co  0  0  0  0  0  0  0  0  0  0  0  0
   94.7255   -3.3650    0.3817 C   0  0  0  0  0  0  0  0  0  0  0  0
   93.7644   -2.4200    0.2723 C   0  0  0  0  0  0  0  0  0  0  0  0
   94.4432   -1.1689    0.1253 C   0  0  0  0  0  0  0  0  0  0  0  0
   93.7666    0.0447   -0.0163 C   0  0  0  0  0  0  0  0  0  0  0  0
   94.4446    1.2571   -0.1616 C   0  0  0  0  0  0  0  0  0  0  0  0
   93.7671    2.5086   -0.3105 C   0  0  0  0  0  0  0  0  0  0  0  0
   94.7293    3.4520   -0.4245 C   0  0  0  0  0  0  0  0  0  0  0  0
   95.9824    2.7658   -0.3435 C   0  0  0  0  0  0  0  0  0  0  0  0
   95.7970    1.4174   -0.1825 N   0  0  0  0  0  0  0  0  0  0  0  0
   97.1970    3.4108   -0.4204 C   0  0  0  0  0  0  0  0  0  0  0  0
   98.4110    2.7645   -0.3437 C   0  0  0  0  0  0  0  0  0  0  0  0
   99.6649    3.4492   -0.4248 C   0  0  0  0  0  0  0  0  0  0  0  0
  100.6260    2.5044   -0.3132 C   0  0  0  0  0  0  0  0  0  0  0  0
   99.9470    1.2536   -0.1656 C   0  0  0  0  0  0  0  0  0  0  0  0
   98.5947    1.4158   -0.1842 N   0  0  0  0  0  0  0  0  0  0  0  0
  100.6234    0.0400   -0.0233 C   0  0  0  0  0  0  0  0  0  0  0  0
   99.9456   -1.1728    0.1195 C   0  0  0  0  0  0  0  0  0  0  0  0
  100.6233   -2.4246    0.2658 C   0  0  0  0  0  0  0  0  0  0  0  0
   99.6612   -3.3683    0.3776 C   0  0  0  0  0  0  0  0  0  0  0  0
   98.4081   -2.6819    0.2984 C   0  0  0  0  0  0  0  0  0  0  0  0
   98.5932   -1.3333    0.1399 N   0  0  0  0  0  0  0  0  0  0  0  0
   97.1933   -3.3268    0.3752 C   0  0  0  0  0  0  0  0  0  0  0  0
   95.9794   -2.6802    0.3002 C   0  0  0  0  0  0  0  0  0  0  0  0
   95.7955   -1.3313    0.1423 N   0  0  0  0  0  0  0  0  0  0  0  0
   94.6182   -4.4250    0.5057 H   0  0  0  0  0  0  0  0  0  0  0  0
   92.6980   -2.5335    0.2869 H   0  0  0  0  0  0  0  0  0  0  0  0
   92.7008    2.6236   -0.3231 H   0  0  0  0  0  0  0  0  0  0  0  0
   94.6231    4.5117   -0.5512 H   0  0  0  0  0  0  0  0  0  0  0  0
   97.1976    4.4827   -0.5478 H   0  0  0  0  0  0  0  0  0  0  0  0
   99.7725    4.5091   -0.5500 H   0  0  0  0  0  0  0  0  0  0  0  0
  101.6924    2.6179   -0.3267 H   0  0  0  0  0  0  0  0  0  0  0  0
  101.6896   -2.5394    0.2782 H   0  0  0  0  0  0  0  0  0  0  0  0
   99.7677   -4.4283    0.5020 H   0  0  0  0  0  0  0  0  0  0  0  0
   97.1926   -4.3989    0.5012 H   0  0  0  0  0  0  0  0  0  0  0  0
  110.6236    0.0185   -0.0276 Co  0  0  0  0  0  0  0  0  0  0  0  0
  108.1476   -3.3851    0.3656 C   0  0  0  0  0  0  0  0  0  0  0  0
  107.1885   -2.4368    0.2680 C   0  0  0  0  0  0  0  0  0  0  0  0
  107.8699   -1.1874    0.1189 C   0  0  0  0  0  0  0  0  0  0  0  0
  107.1959    0.0275   -0.0226 C   0  0  0  0  0  0  0  0  0  0  0  0
  107.8759    1.2392   -0.1637 C   0  0  0  0  0  0  0  0  0  0  0  0
  107.2005    2.4923   -0.3095 C   0  0  0  0  0  0  0  0  0  0  0  0
  108.1642    3.4360   -0.4063 C   0  0  0  0  0  0  0  0  0  0  0  0
  109.4161    2.7483   -0.3191 C   0  0  0  0  0  0  0  0  0  0  0  0
  109.2285    1.3985   -0.1734 N   0  0  0  0  0  0  0  0  0  0  0  0
  110.6318    3.3938   -0.3710 C   0  0  0  0  0  0  0  0  0  0  0  0
  111.8443    2.7452   -0.2911 C   0  0  0  0  0  0  0  0  0  0  0  0
  113.0997    3.4299   -0.3463 C   0  0  0  0  0  0  0  0  0  0  0  0
  114.0587    2.4813   -0.2510 C   0  0  0  0  0  0  0  0  0  0  0  0
  113.3770    1.2281   -0.1388 C   0  0  0  0  0  0  0  0  0  0  0  0
  112.0251    1.3929   -0.1608 N   0  0  0  0  0  0  0  0  0  0  0  0
  114.0507    0.0095   -0.0336 C   0  0  0  0  0  0  0  0  0  0  0  0
  113.3711   -1.2054    0.0754 C   0  0  0  0  0  0  0  0  0  0  0  0
  114.0465   -2.4621    0.1864 C   0  0  0  0  0  0  0  0  0  0  0  0
  113.0829   -3.4053    0.2880 C   0  0  0  0  0  0  0  0  0  0  0  0
  111.8309   -2.7139    0.2378 C   0  0  0  0  0  0  0  0  0  0  0  0
  112.0184   -1.3630    0.1039 N   0  0  0  0  0  0  0  0  0  0  0  0
  110.6153   -3.3559    0.3241 C   0  0  0  0  0  0  0  0  0  0  0  0
  109.4028   -2.7041    0.2747 C   0  0  0  0  0  0  0  0  0  0  0  0
  109.2218   -1.3537    0.1264 N   0  0  0  0  0  0  0  0  0  0  0  0
  108.0380   -4.4452    0.4865 H   0  0  0  0  0  0  0  0  0  0  0  0
  106.1219   -2.5471    0.2913 H   0  0  0  0  0  0  0  0  0  0  0  0
  106.1345    2.6081   -0.3309 H   0  0  0  0  0  0  0  0  0  0  0  0
  108.0598    4.4969   -0.5249 H   0  0  0  0  0  0  0  0  0  0  0  0
  110.6345    4.4677   -0.4809 H   0  0  0  0  0  0  0  0  0  0  0  0
  113.2095    4.4922   -0.4458 H   0  0  0  0  0  0  0  0  0  0  0  0
  115.1254    2.5934   -0.2556 H   0  0  0  0  0  0  0  0  0  0  0  0
  115.1125   -2.5799    0.1859 H   0  0  0  0  0  0  0  0  0  0  0  0
  113.1874   -4.4680    0.3887 H   0  0  0  0  0  0  0  0  0  0  0  0
  110.6126   -4.4295    0.4360 H   0  0  0  0  0  0  0  0  0  0  0  0
  2  3  2  0  0  0  0
  3  4  1  0  0  0  0
  4  5  4  0  0  0  0
  5  6  4  0  0  0  0
  6  7  1  0  0  0  0
  7  8  2  0  0  0  0
  8  9  1  0  0  0  0
  1 10  1  0  0  0  0
  6 10  4  0  0  0  0
  9 10  4  0  0  0  0
  9 11  4  0  0  0  0
 11 12  4  0  0  0  0
 12 13  1  0  0  0  0
 13 14  2  0  0  0  0
 14 15  1  0  0  0  0
  1 16  1  0  0  0  0
 12 16  4  0  0  0  0
 15 16  4  0  0  0  0
 15 17  4  0  0  0  0
 17 18  4  0  0  0  0
 18 19  1  0  0  0  0
 19 20  2  0  0  0  0
 20 21  1  0  0  0  0
  1 22  1  0  0  0  0
 18 22  4  0  0  0  0
 21 22  4  0  0  0  0
 21 23  4  0  0  0  0
  2 24  1  0  0  0  0
 23 24  4  0  0  0  0
  1 25  1  0  0  0  0
  4 25  4  0  0  0  0
 24 25  4  0  0  0  0
  2 26  1  0  0  0  0
  3 27  1  0  0  0  0
  7 28  1  0  0  0  0
  8 29  1  0  0  0  0
 11 30  1  0  0  0  0
 13 31  1  0  0  0  0
 14 32  1  0  0  0  0
 17 33  1  0  0  0  0
 19 34  1  0  0  0  0
 20 35  1  0  0  0  0
 23 36  1  0  0  0  0
 38 39  2  0  0  0  0
 39 40  1  0  0  0  0
 40 41  4  0  0  0  0
 41 42  4  0  0  0  0
 42 43  1  0  0  0  0
 43 44  2  0  0  0  0
 44 45  1  0  0  0  0
 37 46  1  0  0  0  0
 42 46  4  0  0  0  0
 45 46  4  0  0  0  0
 45 47  4  0  0  0  0
 47 48  4  0  0  0  0
 48 49  1  0  0  0  0
 49 50  2  0  0  0  0
 50 51  1  0  0  0  0
 37 52  1  0  0  0  0
 48 52  4  0  0  0  0
 51 52  4  0  0  0  0
 51 53  4  0  0  0  0
 53 54  4  0  0  0  0
 54 55  1  0  0  0  0
 55 56  2  0  0  0  0
 56 57  1  0  0  0  0
 37 58  1  0  0  0  0
 54 58  4  0  0  0  0
 57 58  4  0  0  0  0
 57 59  4  0  0  0  0
 38 60  1  0  0  0  0
 59 60  4  0  0  0  0
 37 61  1  0  0  0  0
 40 61  4  0  0  0  0
 60 61  4  0  0  0  0
 38 62  1  0  0  0  0
 39 63  1  0  0  0  0
 43 64  1  0  0  0  0
 44 65  1  0  0  0  0
 47 66  1  0  0  0  0
 49 67  1  0  0  0  0
 50 68  1  0  0  0  0
 53 69  1  0  0  0  0
 55 70  1  0  0  0  0
 56 71  1  0  0  0  0
 59 72  1  0  0  0  0
  5 73  1  0  0  0  0
 73 74  3  0  0  0  0
 74 75  4  0  0  0  0
 75 76  3  0  0  0  0
 77 78  3  0  0  0  0
 78 79  4  0  0  0  0
 79 80  3  0  0  0  0
 81 82  3  0  0  0  0
 82 83  4  0  0  0  0
 83 84  3  0  0  0  0
 85 86  3  0  0  0  0
 86 87  4  0  0  0  0
 87 88  3  0  0  0  0
 89 90  3  0  0  0  0
 90 91  4  0  0  0  0
 91 92  3  0  0  0  0
 93 94  3  0  0  0  0
 94 95  4  0  0  0  0
 41 96  1  0  0  0  0
 95 96  3  0  0  0  0
 98 99  2  0  0  0  0
 99100  1  0  0  0  0
 76101  1  0  0  0  0
100101  4  0  0  0  0
101102  4  0  0  0  0
102103  1  0  0  0  0
103104  2  0  0  0  0
104105  1  0  0  0  0
 97106  1  0  0  0  0
102106  4  0  0  0  0
105106  4  0  0  0  0
105107  4  0  0  0  0
107108  4  0  0  0  0
108109  1  0  0  0  0
109110  2  0  0  0  0
110111  1  0  0  0  0
 97112  1  0  0  0  0
108112  4  0  0  0  0
111112  4  0  0  0  0
 77113  1  0  0  0  0
111113  4  0  0  0  0
113114  4  0  0  0  0
114115  1  0  0  0  0
115116  2  0  0  0  0
116117  1  0  0  0  0
 97118  1  0  0  0  0
114118  4  0  0  0  0
117118  4  0  0  0  0
117119  4  0  0  0  0
 98120  1  0  0  0  0
119120  4  0  0  0  0
 97121  1  0  0  0  0
100121  4  0  0  0  0
120121  4  0  0  0  0
 98122  1  0  0  0  0
 99123  1  0  0  0  0
103124  1  0  0  0  0
104125  1  0  0  0  0
107126  1  0  0  0  0
109127  1  0  0  0  0
110128  1  0  0  0  0
115129  1  0  0  0  0
116130  1  0  0  0  0
119131  1  0  0  0  0
133134  2  0  0  0  0
134135  1  0  0  0  0
 80136  1  0  0  0  0
135136  4  0  0  0  0
136137  4  0  0  0  0
137138  1  0  0  0  0
138139  2  0  0  0  0
139140  1  0  0  0  0
132141  1  0  0  0  0
137141  4  0  0  0  0
140141  4  0  0  0  0
140142  4  0  0  0  0
142143  4  0  0  0  0
143144  1  0  0  0  0
144145  2  0  0  0  0
145146  1  0  0  0  0
132147  1  0  0  0  0
143147  4  0  0  0  0
146147  4  0  0  0  0
 81148  1  0  0  0  0
146148  4  0  0  0  0
148149  4  0  0  0  0
149150  1  0  0  0  0
150151  2  0  0  0  0
151152  1  0  0  0  0
132153  1  0  0  0  0
149153  4  0  0  0  0
152153  4  0  0  0  0
152154  4  0  0  0  0
133155  1  0  0  0  0
154155  4  0  0  0  0
132156  1  0  0  0  0
135156  4  0  0  0  0
155156  4  0  0  0  0
133157  1  0  0  0  0
134158  1  0  0  0  0
138159  1  0  0  0  0
139160  1  0  0  0  0
142161  1  0  0  0  0
144162  1  0  0  0  0
145163  1  0  0  0  0
150164  1  0  0  0  0
151165  1  0  0  0  0
154166  1  0  0  0  0
168169  2  0  0  0  0
169170  1  0  0  0  0
 84171  1  0  0  0  0
170171  4  0  0  0  0
171172  4  0  0  0  0
172173  1  0  0  0  0
173174  2  0  0  0  0
174175  1  0  0  0  0
167176  1  0  0  0  0
172176  4  0  0  0  0
175176  4  0  0  0  0
175177  4  0  0  0  0
177178  4  0  0  0  0
178179  1  0  0  0  0
179180  2  0  0  0  0
180181  1  0  0  0  0
167182  1  0  0  0  0
178182  4  0  0  0  0
181182  4  0  0  0  0
 85183  1  0  0  0  0
181183  4  0  0  0  0
183184  4  0  0  0  0
184185  1  0  0  0  0
185186  2  0  0  0  0
186187  1  0  0  0  0
167188  1  0  0  0  0
184188  4  0  0  0  0
187188  4  0  0  0  0
187189  4  0  0  0  0
168190  1  0  0  0  0
189190  4  0  0  0  0
167191  1  0  0  0  0
170191  4  0  0  0  0
190191  4  0  0  0  0
168192  1  0  0  0  0
169193  1  0  0  0  0
173194  1  0  0  0  0
174195  1  0  0  0  0
177196  1  0  0  0  0
179197  1  0  0  0  0
180198  1  0  0  0  0
185199  1  0  0  0  0
186200  1  0  0  0  0
189201  1  0  0  0  0
203204  2  0  0  0  0
204205  1  0  0  0  0
 88206  1  0  0  0  0
205206  4  0  0  0  0
206207  4  0  0  0  0
207208  1  0  0  0  0
208209  2  0  0  0  0
209210  1  0  0  0  0
202211  1  0  0  0  0
207211  4  0  0  0  0
210211  4  0  0  0  0
210212  4  0  0  0  0
212213  4  0  0  0  0
213214  1  0  0  0  0
214215  2  0  0  0  0
215216  1  0  0  0  0
202217  1  0  0  0  0
213217  4  0  0  0  0
216217  4  0  0  0  0
 89218  1  0  0  0  0
216218  4  0  0  0  0
218219  4  0  0  0  0
219220  1  0  0  0  0
220221  2  0  0  0  0
221222  1  0  0  0  0
202223  1  0  0  0  0
219223  4  0  0  0  0
222223  4  0  0  0  0
222224  4  0  0  0  0
203225  1  0  0  0  0
224225  4  0  0  0  0
202226  1  0  0  0  0
205226  4  0  0  0  0
225226  4  0  0  0  0
203227  1  0  0  0  0
204228  1  0  0  0  0
208229  1  0  0  0  0
209230  1  0  0  0  0
212231  1  0  0  0  0
214232  1  0  0  0  0
215233  1  0  0  0  0
220234  1  0  0  0  0
221235  1  0  0  0  0
224236  1  0  0  0  0
238239  2  0  0  0  0
239240  1  0  0  0  0
 92241  1  0  0  0  0
240241  4  0  0  0  0
241242  4  0  0  0  0
242243  1  0  0  0  0
243244  2  0  0  0  0
244245  1  0  0  0  0
237246  1  0  0  0  0
242246  4  0  0  0  0
245246  4  0  0  0  0
245247  4  0  0  0  0
247248  4  0  0  0  0
248249  1  0  0  0  0
249250  2  0  0  0  0
250251  1  0  0  0  0
237252  1  0  0  0  0
248252  4  0  0  0  0
251252  4  0  0  0  0
 93253  1  0  0  0  0
251253  4  0  0  0  0
253254  4  0  0  0  0
254255  1  0  0  0  0
255256  2  0  0  0  0
256257  1  0  0  0  0
237258  1  0  0  0  0
254258  4  0  0  0  0
257258  4  0  0  0  0
257259  4  0  0  0  0
238260  1  0  0  0  0
259260  4  0  0  0  0
237261  1  0  0  0  0
240261  4  0  0  0  0
260261  4  0  0  0  0
238262  1  0  0  0  0
239263  1  0  0  0  0
243264  1  0  0  0  0
244265  1  0  0  0  0
247266  1  0  0  0  0
249267  1  0  0  0  0
250268  1  0  0  0  0
255269  1  0  0  0  0
256270  1  0  0  0  0
259271  1  0  0  0  0
M  END
