342

C 75.729527 3.402153 0.567948
C 76.696458 2.475453 0.422060
C 76.013234 1.222707 0.154372
C 76.689815 0.005860 -0.059072
C 76.050891 -1.223992 -0.283733
C 76.663725 -2.482699 -0.524895
C 75.667153 -3.401160 -0.687114
C 74.423154 -2.722227 -0.555047
N 74.707629 -1.412557 -0.313723
C 73.160460 -3.286960 -0.658543
C 71.936178 -2.640541 -0.560724
C 70.665830 -3.339244 -0.694402
C 69.706789 -2.404948 -0.558307
C 70.398625 -1.143620 -0.342054
N 71.736328 -1.323557 -0.347595
C 69.740625 0.066232 -0.160057
C 70.355320 1.290613 0.052213
C 69.739409 2.558963 0.253495
C 70.732227 3.476371 0.431693
C 71.980120 2.793106 0.342690
N 71.700051 1.483453 0.112034
C 73.242768 3.351530 0.474035
C 74.467024 2.704743 0.391769
N 74.679924 1.389493 0.147987
H 75.824589 4.450532 0.776441
H 77.760425 2.587389 0.497614
H 77.721927 -2.647609 -0.577852
H 75.772945 -4.450213 -0.884185
H 74.030399 -0.670586 -0.179662
H 73.129744 -4.351953 -0.843146
H 70.564710 -4.393643 -0.867439
H 68.640143 -2.517938 -0.594340
H 68.660584 0.052035 -0.183893
H 68.680574 2.730760 0.259901
H 70.624923 4.528992 0.609060
H 72.375963 0.737545 -0.001233
H 73.275543 4.415250 0.666068
C 158.957354 -3.426837 -0.287518
C 157.993836 -2.486691 -0.235060
C 158.681906 -1.215101 -0.103525
C 158.009811 0.019358 -0.011960
C 158.653435 1.263625 0.082155
C 158.045777 2.542214 0.200393
C 159.046030 3.468993 0.260824
C 160.287162 2.776116 0.186987
N 159.997375 1.449745 0.081658
C 161.552056 3.344404 0.220575
C 162.773949 2.687673 0.176249
C 164.046936 3.392747 0.223608
C 165.002772 2.446698 0.173133
C 164.306368 1.171802 0.095640
N 162.969123 1.355217 0.097088
C 164.960184 -0.052369 0.034113
C 164.340842 -1.290451 -0.040561
C 164.951790 -2.575123 -0.110692
C 163.955099 -3.502999 -0.179407
C 162.709730 -2.809909 -0.152432
N 162.995123 -1.484048 -0.066207
C 161.444665 -3.374907 -0.213381
C 160.222720 -2.718917 -0.192585
N 160.014795 -1.384647 -0.087299
H 158.858249 -4.490993 -0.384226
H 156.929200 -2.602327 -0.293352
H 156.988498 2.715148 0.245664
H 158.944554 4.532898 0.352239
H 160.671019 0.695240 0.017632
H 161.586896 4.422526 0.295881
H 164.151757 4.459034 0.286588
H 166.069949 2.559696 0.185468
H 166.040443 -0.038911 0.044646
H 166.010103 -2.750222 -0.109059
H 164.058163 -4.568952 -0.243509
H 162.322452 -0.727720 -0.026372
H 161.407666 -4.452946 -0.290283
C 78.090348 0.016930 -0.047338
C 79.303884 0.036810 -0.039330
C 89.135075 0.012687 0.025163
C 90.348755 0.028665 0.031760
C 100.179347 -0.019935 0.042102
C 101.393388 -0.002151 0.036312
C 111.224185 -0.002216 -0.033699
C 112.437915 0.023377 -0.038382
C 122.264438 0.026833 0.016241
C 123.478401 0.033744 -0.000642
C 133.311911 -0.063147 0.021247
C 134.525762 -0.038591 0.042236
C 144.353172 0.053045 0.074881
C 145.566629 0.075092 0.067610
C 155.395643 -0.003317 -0.009339
C 156.609271 0.011983 -0.013012
C 81.684296 -3.252759 0.962984
C 80.709981 -2.357507 0.708887
C 81.383968 -1.132691 0.320248
C 80.703467 0.049726 -0.030439
C 81.351825 1.247074 -0.374794
C 80.758813 2.475047 -0.768701
C 81.770981 3.359631 -1.009354
C 83.003155 2.688714 -0.772338
N 82.697707 1.417638 -0.392782
C 84.271627 3.234997 -0.912476
C 85.498669 2.620530 -0.721192
C 86.757396 3.317485 -0.925801
C 87.731508 2.422811 -0.668885
C 87.056152 1.190133 -0.307590
N 85.721351 1.337428 -0.347945
C 87.735913 0.000691 0.019598
C 87.088371 -1.203095 0.341640
C 87.682884 -2.438806 0.708528
C 86.671052 -3.323029 0.951971
C 85.437929 -2.644517 0.742538
N 85.742536 -1.370005 0.373526
C 84.169306 -3.184341 0.902543
C 82.942302 -2.563339 0.731391
N 82.719061 -1.283411 0.348071
H 81.596821 -4.274573 1.278928
H 79.646278 -2.472839 0.782758
H 79.704192 2.643081 -0.865052
H 81.682438 4.380743 -1.325692
H 83.350910 0.677999 -0.158693
H 84.303079 4.272007 -1.218606
H 86.845276 4.343678 -1.227100
H 88.795990 2.543320 -0.723162
H 88.738441 -2.611731 0.785254
H 86.760390 -4.348779 1.252718
H 85.088124 -0.626115 0.157100
H 84.137166 -4.221608 1.207727
C 92.725339 -3.286984 -0.879137
C 91.751672 -2.387794 -0.636662
C 92.427387 -1.154835 -0.277264
C 91.747895 0.038294 0.037040
C 92.395831 1.242139 0.358187
C 91.802001 2.481250 0.714088
C 92.814599 3.363276 0.962835
C 94.047231 2.679857 0.767616
N 93.741943 1.404920 0.401153
C 95.316289 3.215608 0.939330
C 96.542525 2.589642 0.783575
C 97.800380 3.274552 1.028881
C 98.774079 2.375712 0.785357
C 98.099967 1.153365 0.389370
N 96.765552 1.308355 0.403439
C 98.780727 -0.031339 0.044912
C 98.131714 -1.228655 -0.299582
C 98.724269 -2.459817 -0.683520
C 97.711666 -3.343555 -0.925632
C 96.479734 -2.668474 -0.700207
N 96.785795 -1.395972 -0.325418
C 95.210773 -3.211735 -0.846343
C 93.984184 -2.592250 -0.668502
N 93.762151 -1.306125 -0.305436
H 92.637081 -4.314876 -1.174431
H 90.687395 -2.505510 -0.699595
H 90.746361 2.657878 0.780669
H 92.725960 4.390584 1.258428
H 94.395202 0.657541 0.193178
H 95.348947 4.253710 1.241616
H 97.888060 4.295892 1.346308
H 99.837252 2.486603 0.871918
H 99.778959 -2.630702 -0.772827
H 97.799955 -4.366618 -1.235634
H 96.132928 -0.653655 -0.098930
H 95.178255 -4.250508 -1.146299
C 103.791803 -3.391217 0.544377
C 102.812868 -2.472382 0.431362
C 103.479532 -1.203606 0.205467
C 102.791924 0.013211 0.026652
C 103.434042 1.248333 -0.162739
C 102.834071 2.517598 -0.370569
C 103.841677 3.430266 -0.500317
C 105.077687 2.736045 -0.380357
N 104.779182 1.422959 -0.180541
C 106.343361 3.301967 -0.449401
C 107.573518 2.671624 -0.355348
C 108.828005 3.401818 -0.422899
C 109.806883 2.483743 -0.303552
C 109.138867 1.202435 -0.170755
N 107.803401 1.345703 -0.198000
C 109.825599 -0.019229 -0.026665
C 109.183848 -1.258855 0.129880
C 109.783766 -2.538721 0.258171
C 108.776366 -3.451250 0.390908
C 107.540631 -2.747832 0.341509
N 107.839056 -1.429524 0.179732
C 106.275083 -3.308305 0.447472
C 105.045363 -2.672333 0.392355
N 104.814756 -1.351850 0.194645
H 103.710307 -4.447257 0.716709
H 101.750529 -2.600049 0.503704
H 101.778042 2.694840 -0.424485
H 103.747380 4.485704 -0.666803
H 105.436014 0.658909 -0.064687
H 106.369362 4.373529 -0.594887
H 108.910138 4.465323 -0.540199
H 110.870145 2.623190 -0.287412
H 110.839480 -2.725355 0.237513
H 108.870590 -4.513185 0.509204
H 107.181809 -0.661404 0.098753
H 106.248671 -4.379869 0.592929
C 114.819095 -2.788281 1.935553
C 113.844318 -2.026013 1.402583
C 114.518258 -0.976034 0.661569
C 113.836539 0.041675 -0.034481
C 114.482319 1.082074 -0.722558
C 113.885897 2.134511 -1.464982
C 114.895880 2.904400 -1.967229
C 116.129795 2.334717 -1.546439
N 115.827641 1.238888 -0.797350
C 117.397593 2.804287 -1.861069
C 118.625054 2.270863 -1.502588
C 119.882468 2.854511 -1.938162
C 120.857213 2.080629 -1.422159
C 120.184058 1.037403 -0.671171
N 118.849272 1.173148 -0.740715
C 120.865864 0.021202 0.026977
C 120.219480 -1.003786 0.737660
C 120.815762 -2.040984 1.501226
C 119.805673 -2.800931 2.018352
C 118.571993 -2.241122 1.584108
N 118.874164 -1.158517 0.816003
C 117.304217 -2.713247 1.895172
C 116.076971 -2.193590 1.516597
N 115.853106 -1.099983 0.748609
H 114.732080 -3.661858 2.552681
H 112.780164 -2.123107 1.494102
H 112.830574 2.266612 -1.601286
H 114.804600 3.782691 -2.576174
H 116.483303 0.606321 -0.351932
H 117.428158 3.695020 -2.474028
H 119.969147 3.728291 -2.555073
H 121.920716 2.166483 -1.530259
H 121.871021 -2.169201 1.641674
H 119.896865 -3.666387 2.645442
H 118.218338 -0.533311 0.360582
H 117.273502 -3.596589 2.518718
C 125.837102 -3.384739 0.494229
C 124.868171 -2.461291 0.339778
C 125.549761 -1.191593 0.170258
C 124.876861 0.032365 -0.015136
C 125.533801 1.257428 -0.217454
C 124.949854 2.538272 -0.397864
C 125.968375 3.431909 -0.568510
C 127.195224 2.715933 -0.488976
N 126.880586 1.409232 -0.273107
C 128.467320 3.256720 -0.616210
C 129.689715 2.611129 -0.525153
C 130.951468 3.309473 -0.701886
C 131.920216 2.388449 -0.532949
C 131.239179 1.139086 -0.249401
N 129.905486 1.299769 -0.260571
C 131.913608 -0.072785 0.001419
C 131.256938 -1.292750 0.233709
C 131.839858 -2.557670 0.505781
C 130.820858 -3.455260 0.651030
C 129.594360 -2.755223 0.478154
N 129.909944 -1.454223 0.231526
C 128.322178 -3.306738 0.546194
C 127.099268 -2.669171 0.413816
N 126.883551 -1.347088 0.210638
H 125.743500 -4.443153 0.644361
H 123.803719 -2.591032 0.320187
H 123.896676 2.738810 -0.385060
H 125.887371 4.489085 -0.730966
H 127.527410 0.636301 -0.159514
H 128.506127 4.320296 -0.809597
H 131.044992 4.354548 -0.926834
H 132.984171 2.502126 -0.603605
H 132.892701 -2.742268 0.588664
H 130.901274 -4.503865 0.862068
H 129.264129 -0.688652 0.071467
H 128.283890 -4.372096 0.729770
C 136.953840 -3.367935 -0.677899
C 135.966938 -2.467660 -0.502538
C 136.622512 -1.209903 -0.196687
C 135.924018 -0.013204 0.059245
C 136.554799 1.212525 0.331021
C 135.942770 2.455991 0.636785
C 136.941187 3.368092 0.827028
C 138.183766 2.699208 0.646381
N 137.898006 1.401263 0.350931
C 139.443740 3.270884 0.758154
C 140.679922 2.660996 0.617515
C 141.928439 3.387145 0.777936
C 142.915347 2.489559 0.588566
C 142.257614 1.225616 0.313165
N 140.920778 1.357755 0.337109
C 142.954173 0.024790 0.076627
C 142.324911 -1.208445 -0.158680
C 142.938713 -2.459535 -0.428782
C 141.940566 -3.373083 -0.613794
C 140.697111 -2.697851 -0.464419
N 140.981639 -1.395757 -0.187787
C 139.436876 -3.264822 -0.595980
C 138.201176 -2.648499 -0.483237
N 137.958932 -1.346314 -0.197356
H 136.881515 -4.411274 -0.918246
H 134.905642 -2.600436 -0.579779
H 134.885477 2.616114 0.714048
H 136.836498 4.406763 1.073526
H 138.563053 0.656605 0.173051
H 139.459376 4.326906 0.991893
H 142.001462 4.433137 1.006285
H 143.978045 2.627510 0.637343
H 143.997034 -2.623314 -0.484515
H 142.045889 -4.416847 -0.837489
H 140.315876 -0.646961 -0.031235
H 139.420767 -4.321893 -0.824923
C 147.940754 -3.138091 1.285173
C 146.967937 -2.263776 0.962039
C 147.644708 -1.073835 0.479954
C 146.965838 0.085389 0.056503
C 147.613339 1.251138 -0.382874
C 147.019386 2.452912 -0.849812
C 148.031944 3.301714 -1.195238
C 149.264717 2.634778 -0.949203
N 148.959376 1.403149 -0.456282
C 150.533577 3.144854 -1.186440
C 151.759404 2.532246 -0.979764
C 153.017266 3.185476 -1.300277
C 153.990565 2.312435 -0.975019
C 153.316207 1.137097 -0.456060
N 151.981722 1.294355 -0.476573
C 153.996061 -0.009610 -0.000991
C 153.347234 -1.164825 0.464943
C 153.940081 -2.354135 0.963738
C 152.927382 -3.206146 1.300454
C 151.695177 -2.552574 1.019599
N 152.000990 -1.324545 0.518225
C 150.426119 -3.074778 1.228514
C 149.200058 -2.471493 0.999418
N 148.979112 -1.226191 0.513968
H 147.851692 -4.131955 1.679957
H 145.903773 -2.371283 1.043070
H 145.963522 2.627666 -0.918776
H 147.943283 4.295921 -1.588056
H 149.612579 0.676332 -0.184982
H 150.567025 4.147460 -1.591097
H 153.105227 4.170248 -1.717470
H 155.053498 2.411496 -1.078020
H 154.995120 -2.519214 1.060210
H 153.015652 -4.193830 1.709441
H 151.348104 -0.605873 0.225266
H 150.393185 -4.078764 1.629727
