
  xtb     11212121263D
 xtb: 6.4.1 (bd6e46d)
342386  0     0  0            999 V2000
   75.7295    3.4022    0.5679 C   0  0  0  0  0  0  0  0  0  0  0  0
   76.6965    2.4755    0.4221 C   0  0  0  0  0  0  0  0  0  0  0  0
   76.0132    1.2227    0.1544 C   0  0  0  0  0  0  0  0  0  0  0  0
   76.6898    0.0059   -0.0591 C   0  0  0  0  0  0  0  0  0  0  0  0
   76.0509   -1.2240   -0.2837 C   0  0  0  0  0  0  0  0  0  0  0  0
   76.6637   -2.4827   -0.5249 C   0  0  0  0  0  0  0  0  0  0  0  0
   75.6672   -3.4012   -0.6871 C   0  0  0  0  0  0  0  0  0  0  0  0
   74.4232   -2.7222   -0.5550 C   0  0  0  0  0  0  0  0  0  0  0  0
   74.7076   -1.4126   -0.3137 N   0  0  0  0  0  0  0  0  0  0  0  0
   73.1605   -3.2870   -0.6585 C   0  0  0  0  0  0  0  0  0  0  0  0
   71.9362   -2.6405   -0.5607 C   0  0  0  0  0  0  0  0  0  0  0  0
   70.6658   -3.3392   -0.6944 C   0  0  0  0  0  0  0  0  0  0  0  0
   69.7068   -2.4049   -0.5583 C   0  0  0  0  0  0  0  0  0  0  0  0
   70.3986   -1.1436   -0.3421 C   0  0  0  0  0  0  0  0  0  0  0  0
   71.7363   -1.3236   -0.3476 N   0  0  0  0  0  0  0  0  0  0  0  0
   69.7406    0.0662   -0.1601 C   0  0  0  0  0  0  0  0  0  0  0  0
   70.3553    1.2906    0.0522 C   0  0  0  0  0  0  0  0  0  0  0  0
   69.7394    2.5590    0.2535 C   0  0  0  0  0  0  0  0  0  0  0  0
   70.7322    3.4764    0.4317 C   0  0  0  0  0  0  0  0  0  0  0  0
   71.9801    2.7931    0.3427 C   0  0  0  0  0  0  0  0  0  0  0  0
   71.7001    1.4835    0.1120 N   0  0  0  0  0  0  0  0  0  0  0  0
   73.2428    3.3515    0.4740 C   0  0  0  0  0  0  0  0  0  0  0  0
   74.4670    2.7047    0.3918 C   0  0  0  0  0  0  0  0  0  0  0  0
   74.6799    1.3895    0.1480 N   0  0  0  0  0  0  0  0  0  0  0  0
   75.8246    4.4505    0.7764 H   0  0  0  0  0  0  0  0  0  0  0  0
   77.7604    2.5874    0.4976 H   0  0  0  0  0  0  0  0  0  0  0  0
   77.7219   -2.6476   -0.5779 H   0  0  0  0  0  0  0  0  0  0  0  0
   75.7729   -4.4502   -0.8842 H   0  0  0  0  0  0  0  0  0  0  0  0
   74.0304   -0.6706   -0.1797 H   0  0  0  0  0  0  0  0  0  0  0  0
   73.1297   -4.3520   -0.8431 H   0  0  0  0  0  0  0  0  0  0  0  0
   70.5647   -4.3936   -0.8674 H   0  0  0  0  0  0  0  0  0  0  0  0
   68.6401   -2.5179   -0.5943 H   0  0  0  0  0  0  0  0  0  0  0  0
   68.6606    0.0520   -0.1839 H   0  0  0  0  0  0  0  0  0  0  0  0
   68.6806    2.7308    0.2599 H   0  0  0  0  0  0  0  0  0  0  0  0
   70.6249    4.5290    0.6091 H   0  0  0  0  0  0  0  0  0  0  0  0
   72.3760    0.7375   -0.0012 H   0  0  0  0  0  0  0  0  0  0  0  0
   73.2755    4.4153    0.6661 H   0  0  0  0  0  0  0  0  0  0  0  0
  158.9574   -3.4268   -0.2875 C   0  0  0  0  0  0  0  0  0  0  0  0
  157.9938   -2.4867   -0.2351 C   0  0  0  0  0  0  0  0  0  0  0  0
  158.6819   -1.2151   -0.1035 C   0  0  0  0  0  0  0  0  0  0  0  0
  158.0098    0.0194   -0.0120 C   0  0  0  0  0  0  0  0  0  0  0  0
  158.6534    1.2636    0.0822 C   0  0  0  0  0  0  0  0  0  0  0  0
  158.0458    2.5422    0.2004 C   0  0  0  0  0  0  0  0  0  0  0  0
  159.0460    3.4690    0.2608 C   0  0  0  0  0  0  0  0  0  0  0  0
  160.2872    2.7761    0.1870 C   0  0  0  0  0  0  0  0  0  0  0  0
  159.9974    1.4497    0.0817 N   0  0  0  0  0  0  0  0  0  0  0  0
  161.5521    3.3444    0.2206 C   0  0  0  0  0  0  0  0  0  0  0  0
  162.7739    2.6877    0.1762 C   0  0  0  0  0  0  0  0  0  0  0  0
  164.0469    3.3927    0.2236 C   0  0  0  0  0  0  0  0  0  0  0  0
  165.0028    2.4467    0.1731 C   0  0  0  0  0  0  0  0  0  0  0  0
  164.3064    1.1718    0.0956 C   0  0  0  0  0  0  0  0  0  0  0  0
  162.9691    1.3552    0.0971 N   0  0  0  0  0  0  0  0  0  0  0  0
  164.9602   -0.0524    0.0341 C   0  0  0  0  0  0  0  0  0  0  0  0
  164.3408   -1.2905   -0.0406 C   0  0  0  0  0  0  0  0  0  0  0  0
  164.9518   -2.5751   -0.1107 C   0  0  0  0  0  0  0  0  0  0  0  0
  163.9551   -3.5030   -0.1794 C   0  0  0  0  0  0  0  0  0  0  0  0
  162.7097   -2.8099   -0.1524 C   0  0  0  0  0  0  0  0  0  0  0  0
  162.9951   -1.4840   -0.0662 N   0  0  0  0  0  0  0  0  0  0  0  0
  161.4447   -3.3749   -0.2134 C   0  0  0  0  0  0  0  0  0  0  0  0
  160.2227   -2.7189   -0.1926 C   0  0  0  0  0  0  0  0  0  0  0  0
  160.0148   -1.3846   -0.0873 N   0  0  0  0  0  0  0  0  0  0  0  0
  158.8582   -4.4910   -0.3842 H   0  0  0  0  0  0  0  0  0  0  0  0
  156.9292   -2.6023   -0.2934 H   0  0  0  0  0  0  0  0  0  0  0  0
  156.9885    2.7151    0.2457 H   0  0  0  0  0  0  0  0  0  0  0  0
  158.9446    4.5329    0.3522 H   0  0  0  0  0  0  0  0  0  0  0  0
  160.6710    0.6952    0.0176 H   0  0  0  0  0  0  0  0  0  0  0  0
  161.5869    4.4225    0.2959 H   0  0  0  0  0  0  0  0  0  0  0  0
  164.1518    4.4590    0.2866 H   0  0  0  0  0  0  0  0  0  0  0  0
  166.0699    2.5597    0.1855 H   0  0  0  0  0  0  0  0  0  0  0  0
  166.0404   -0.0389    0.0446 H   0  0  0  0  0  0  0  0  0  0  0  0
  166.0101   -2.7502   -0.1091 H   0  0  0  0  0  0  0  0  0  0  0  0
  164.0582   -4.5690   -0.2435 H   0  0  0  0  0  0  0  0  0  0  0  0
  162.3225   -0.7277   -0.0264 H   0  0  0  0  0  0  0  0  0  0  0  0
  161.4077   -4.4529   -0.2903 H   0  0  0  0  0  0  0  0  0  0  0  0
   78.0903    0.0169   -0.0473 C   0  0  0  0  0  0  0  0  0  0  0  0
   79.3039    0.0368   -0.0393 C   0  0  0  0  0  0  0  0  0  0  0  0
   89.1351    0.0127    0.0252 C   0  0  0  0  0  0  0  0  0  0  0  0
   90.3488    0.0287    0.0318 C   0  0  0  0  0  0  0  0  0  0  0  0
  100.1793   -0.0199    0.0421 C   0  0  0  0  0  0  0  0  0  0  0  0
  101.3934   -0.0022    0.0363 C   0  0  0  0  0  0  0  0  0  0  0  0
  111.2242   -0.0022   -0.0337 C   0  0  0  0  0  0  0  0  0  0  0  0
  112.4379    0.0234   -0.0384 C   0  0  0  0  0  0  0  0  0  0  0  0
  122.2644    0.0268    0.0162 C   0  0  0  0  0  0  0  0  0  0  0  0
  123.4784    0.0337   -0.0006 C   0  0  0  0  0  0  0  0  0  0  0  0
  133.3119   -0.0631    0.0212 C   0  0  0  0  0  0  0  0  0  0  0  0
  134.5258   -0.0386    0.0422 C   0  0  0  0  0  0  0  0  0  0  0  0
  144.3532    0.0530    0.0749 C   0  0  0  0  0  0  0  0  0  0  0  0
  145.5666    0.0751    0.0676 C   0  0  0  0  0  0  0  0  0  0  0  0
  155.3956   -0.0033   -0.0093 C   0  0  0  0  0  0  0  0  0  0  0  0
  156.6093    0.0120   -0.0130 C   0  0  0  0  0  0  0  0  0  0  0  0
   81.6843   -3.2528    0.9630 C   0  0  0  0  0  0  0  0  0  0  0  0
   80.7100   -2.3575    0.7089 C   0  0  0  0  0  0  0  0  0  0  0  0
   81.3840   -1.1327    0.3202 C   0  0  0  0  0  0  0  0  0  0  0  0
   80.7035    0.0497   -0.0304 C   0  0  0  0  0  0  0  0  0  0  0  0
   81.3518    1.2471   -0.3748 C   0  0  0  0  0  0  0  0  0  0  0  0
   80.7588    2.4750   -0.7687 C   0  0  0  0  0  0  0  0  0  0  0  0
   81.7710    3.3596   -1.0094 C   0  0  0  0  0  0  0  0  0  0  0  0
   83.0032    2.6887   -0.7723 C   0  0  0  0  0  0  0  0  0  0  0  0
   82.6977    1.4176   -0.3928 N   0  0  0  0  0  0  0  0  0  0  0  0
   84.2716    3.2350   -0.9125 C   0  0  0  0  0  0  0  0  0  0  0  0
   85.4987    2.6205   -0.7212 C   0  0  0  0  0  0  0  0  0  0  0  0
   86.7574    3.3175   -0.9258 C   0  0  0  0  0  0  0  0  0  0  0  0
   87.7315    2.4228   -0.6689 C   0  0  0  0  0  0  0  0  0  0  0  0
   87.0562    1.1901   -0.3076 C   0  0  0  0  0  0  0  0  0  0  0  0
   85.7214    1.3374   -0.3479 N   0  0  0  0  0  0  0  0  0  0  0  0
   87.7359    0.0007    0.0196 C   0  0  0  0  0  0  0  0  0  0  0  0
   87.0884   -1.2031    0.3416 C   0  0  0  0  0  0  0  0  0  0  0  0
   87.6829   -2.4388    0.7085 C   0  0  0  0  0  0  0  0  0  0  0  0
   86.6711   -3.3230    0.9520 C   0  0  0  0  0  0  0  0  0  0  0  0
   85.4379   -2.6445    0.7425 C   0  0  0  0  0  0  0  0  0  0  0  0
   85.7425   -1.3700    0.3735 N   0  0  0  0  0  0  0  0  0  0  0  0
   84.1693   -3.1843    0.9025 C   0  0  0  0  0  0  0  0  0  0  0  0
   82.9423   -2.5633    0.7314 C   0  0  0  0  0  0  0  0  0  0  0  0
   82.7191   -1.2834    0.3481 N   0  0  0  0  0  0  0  0  0  0  0  0
   81.5968   -4.2746    1.2789 H   0  0  0  0  0  0  0  0  0  0  0  0
   79.6463   -2.4728    0.7828 H   0  0  0  0  0  0  0  0  0  0  0  0
   79.7042    2.6431   -0.8651 H   0  0  0  0  0  0  0  0  0  0  0  0
   81.6824    4.3807   -1.3257 H   0  0  0  0  0  0  0  0  0  0  0  0
   83.3509    0.6780   -0.1587 H   0  0  0  0  0  0  0  0  0  0  0  0
   84.3031    4.2720   -1.2186 H   0  0  0  0  0  0  0  0  0  0  0  0
   86.8453    4.3437   -1.2271 H   0  0  0  0  0  0  0  0  0  0  0  0
   88.7960    2.5433   -0.7232 H   0  0  0  0  0  0  0  0  0  0  0  0
   88.7384   -2.6117    0.7853 H   0  0  0  0  0  0  0  0  0  0  0  0
   86.7604   -4.3488    1.2527 H   0  0  0  0  0  0  0  0  0  0  0  0
   85.0881   -0.6261    0.1571 H   0  0  0  0  0  0  0  0  0  0  0  0
   84.1372   -4.2216    1.2077 H   0  0  0  0  0  0  0  0  0  0  0  0
   92.7253   -3.2870   -0.8791 C   0  0  0  0  0  0  0  0  0  0  0  0
   91.7517   -2.3878   -0.6367 C   0  0  0  0  0  0  0  0  0  0  0  0
   92.4274   -1.1548   -0.2773 C   0  0  0  0  0  0  0  0  0  0  0  0
   91.7479    0.0383    0.0370 C   0  0  0  0  0  0  0  0  0  0  0  0
   92.3958    1.2421    0.3582 C   0  0  0  0  0  0  0  0  0  0  0  0
   91.8020    2.4813    0.7141 C   0  0  0  0  0  0  0  0  0  0  0  0
   92.8146    3.3633    0.9628 C   0  0  0  0  0  0  0  0  0  0  0  0
   94.0472    2.6799    0.7676 C   0  0  0  0  0  0  0  0  0  0  0  0
   93.7419    1.4049    0.4012 N   0  0  0  0  0  0  0  0  0  0  0  0
   95.3163    3.2156    0.9393 C   0  0  0  0  0  0  0  0  0  0  0  0
   96.5425    2.5896    0.7836 C   0  0  0  0  0  0  0  0  0  0  0  0
   97.8004    3.2746    1.0289 C   0  0  0  0  0  0  0  0  0  0  0  0
   98.7741    2.3757    0.7854 C   0  0  0  0  0  0  0  0  0  0  0  0
   98.1000    1.1534    0.3894 C   0  0  0  0  0  0  0  0  0  0  0  0
   96.7656    1.3084    0.4034 N   0  0  0  0  0  0  0  0  0  0  0  0
   98.7807   -0.0313    0.0449 C   0  0  0  0  0  0  0  0  0  0  0  0
   98.1317   -1.2287   -0.2996 C   0  0  0  0  0  0  0  0  0  0  0  0
   98.7243   -2.4598   -0.6835 C   0  0  0  0  0  0  0  0  0  0  0  0
   97.7117   -3.3436   -0.9256 C   0  0  0  0  0  0  0  0  0  0  0  0
   96.4797   -2.6685   -0.7002 C   0  0  0  0  0  0  0  0  0  0  0  0
   96.7858   -1.3960   -0.3254 N   0  0  0  0  0  0  0  0  0  0  0  0
   95.2108   -3.2117   -0.8463 C   0  0  0  0  0  0  0  0  0  0  0  0
   93.9842   -2.5923   -0.6685 C   0  0  0  0  0  0  0  0  0  0  0  0
   93.7622   -1.3061   -0.3054 N   0  0  0  0  0  0  0  0  0  0  0  0
   92.6371   -4.3149   -1.1744 H   0  0  0  0  0  0  0  0  0  0  0  0
   90.6874   -2.5055   -0.6996 H   0  0  0  0  0  0  0  0  0  0  0  0
   90.7464    2.6579    0.7807 H   0  0  0  0  0  0  0  0  0  0  0  0
   92.7260    4.3906    1.2584 H   0  0  0  0  0  0  0  0  0  0  0  0
   94.3952    0.6575    0.1932 H   0  0  0  0  0  0  0  0  0  0  0  0
   95.3489    4.2537    1.2416 H   0  0  0  0  0  0  0  0  0  0  0  0
   97.8881    4.2959    1.3463 H   0  0  0  0  0  0  0  0  0  0  0  0
   99.8373    2.4866    0.8719 H   0  0  0  0  0  0  0  0  0  0  0  0
   99.7790   -2.6307   -0.7728 H   0  0  0  0  0  0  0  0  0  0  0  0
   97.8000   -4.3666   -1.2356 H   0  0  0  0  0  0  0  0  0  0  0  0
   96.1329   -0.6537   -0.0989 H   0  0  0  0  0  0  0  0  0  0  0  0
   95.1783   -4.2505   -1.1463 H   0  0  0  0  0  0  0  0  0  0  0  0
  103.7918   -3.3912    0.5444 C   0  0  0  0  0  0  0  0  0  0  0  0
  102.8129   -2.4724    0.4314 C   0  0  0  0  0  0  0  0  0  0  0  0
  103.4795   -1.2036    0.2055 C   0  0  0  0  0  0  0  0  0  0  0  0
  102.7919    0.0132    0.0267 C   0  0  0  0  0  0  0  0  0  0  0  0
  103.4340    1.2483   -0.1627 C   0  0  0  0  0  0  0  0  0  0  0  0
  102.8341    2.5176   -0.3706 C   0  0  0  0  0  0  0  0  0  0  0  0
  103.8417    3.4303   -0.5003 C   0  0  0  0  0  0  0  0  0  0  0  0
  105.0777    2.7360   -0.3804 C   0  0  0  0  0  0  0  0  0  0  0  0
  104.7792    1.4230   -0.1805 N   0  0  0  0  0  0  0  0  0  0  0  0
  106.3434    3.3020   -0.4494 C   0  0  0  0  0  0  0  0  0  0  0  0
  107.5735    2.6716   -0.3553 C   0  0  0  0  0  0  0  0  0  0  0  0
  108.8280    3.4018   -0.4229 C   0  0  0  0  0  0  0  0  0  0  0  0
  109.8069    2.4837   -0.3036 C   0  0  0  0  0  0  0  0  0  0  0  0
  109.1389    1.2024   -0.1708 C   0  0  0  0  0  0  0  0  0  0  0  0
  107.8034    1.3457   -0.1980 N   0  0  0  0  0  0  0  0  0  0  0  0
  109.8256   -0.0192   -0.0267 C   0  0  0  0  0  0  0  0  0  0  0  0
  109.1838   -1.2589    0.1299 C   0  0  0  0  0  0  0  0  0  0  0  0
  109.7838   -2.5387    0.2582 C   0  0  0  0  0  0  0  0  0  0  0  0
  108.7764   -3.4513    0.3909 C   0  0  0  0  0  0  0  0  0  0  0  0
  107.5406   -2.7478    0.3415 C   0  0  0  0  0  0  0  0  0  0  0  0
  107.8391   -1.4295    0.1797 N   0  0  0  0  0  0  0  0  0  0  0  0
  106.2751   -3.3083    0.4475 C   0  0  0  0  0  0  0  0  0  0  0  0
  105.0454   -2.6723    0.3924 C   0  0  0  0  0  0  0  0  0  0  0  0
  104.8148   -1.3519    0.1946 N   0  0  0  0  0  0  0  0  0  0  0  0
  103.7103   -4.4473    0.7167 H   0  0  0  0  0  0  0  0  0  0  0  0
  101.7505   -2.6000    0.5037 H   0  0  0  0  0  0  0  0  0  0  0  0
  101.7780    2.6948   -0.4245 H   0  0  0  0  0  0  0  0  0  0  0  0
  103.7474    4.4857   -0.6668 H   0  0  0  0  0  0  0  0  0  0  0  0
  105.4360    0.6589   -0.0647 H   0  0  0  0  0  0  0  0  0  0  0  0
  106.3694    4.3735   -0.5949 H   0  0  0  0  0  0  0  0  0  0  0  0
  108.9101    4.4653   -0.5402 H   0  0  0  0  0  0  0  0  0  0  0  0
  110.8701    2.6232   -0.2874 H   0  0  0  0  0  0  0  0  0  0  0  0
  110.8395   -2.7254    0.2375 H   0  0  0  0  0  0  0  0  0  0  0  0
  108.8706   -4.5132    0.5092 H   0  0  0  0  0  0  0  0  0  0  0  0
  107.1818   -0.6614    0.0988 H   0  0  0  0  0  0  0  0  0  0  0  0
  106.2487   -4.3799    0.5929 H   0  0  0  0  0  0  0  0  0  0  0  0
  114.8191   -2.7883    1.9356 C   0  0  0  0  0  0  0  0  0  0  0  0
  113.8443   -2.0260    1.4026 C   0  0  0  0  0  0  0  0  0  0  0  0
  114.5183   -0.9760    0.6616 C   0  0  0  0  0  0  0  0  0  0  0  0
  113.8365    0.0417   -0.0345 C   0  0  0  0  0  0  0  0  0  0  0  0
  114.4823    1.0821   -0.7226 C   0  0  0  0  0  0  0  0  0  0  0  0
  113.8859    2.1345   -1.4650 C   0  0  0  0  0  0  0  0  0  0  0  0
  114.8959    2.9044   -1.9672 C   0  0  0  0  0  0  0  0  0  0  0  0
  116.1298    2.3347   -1.5464 C   0  0  0  0  0  0  0  0  0  0  0  0
  115.8276    1.2389   -0.7974 N   0  0  0  0  0  0  0  0  0  0  0  0
  117.3976    2.8043   -1.8611 C   0  0  0  0  0  0  0  0  0  0  0  0
  118.6251    2.2709   -1.5026 C   0  0  0  0  0  0  0  0  0  0  0  0
  119.8825    2.8545   -1.9382 C   0  0  0  0  0  0  0  0  0  0  0  0
  120.8572    2.0806   -1.4222 C   0  0  0  0  0  0  0  0  0  0  0  0
  120.1841    1.0374   -0.6712 C   0  0  0  0  0  0  0  0  0  0  0  0
  118.8493    1.1731   -0.7407 N   0  0  0  0  0  0  0  0  0  0  0  0
  120.8659    0.0212    0.0270 C   0  0  0  0  0  0  0  0  0  0  0  0
  120.2195   -1.0038    0.7377 C   0  0  0  0  0  0  0  0  0  0  0  0
  120.8158   -2.0410    1.5012 C   0  0  0  0  0  0  0  0  0  0  0  0
  119.8057   -2.8009    2.0184 C   0  0  0  0  0  0  0  0  0  0  0  0
  118.5720   -2.2411    1.5841 C   0  0  0  0  0  0  0  0  0  0  0  0
  118.8742   -1.1585    0.8160 N   0  0  0  0  0  0  0  0  0  0  0  0
  117.3042   -2.7132    1.8952 C   0  0  0  0  0  0  0  0  0  0  0  0
  116.0770   -2.1936    1.5166 C   0  0  0  0  0  0  0  0  0  0  0  0
  115.8531   -1.1000    0.7486 N   0  0  0  0  0  0  0  0  0  0  0  0
  114.7321   -3.6619    2.5527 H   0  0  0  0  0  0  0  0  0  0  0  0
  112.7802   -2.1231    1.4941 H   0  0  0  0  0  0  0  0  0  0  0  0
  112.8306    2.2666   -1.6013 H   0  0  0  0  0  0  0  0  0  0  0  0
  114.8046    3.7827   -2.5762 H   0  0  0  0  0  0  0  0  0  0  0  0
  116.4833    0.6063   -0.3519 H   0  0  0  0  0  0  0  0  0  0  0  0
  117.4282    3.6950   -2.4740 H   0  0  0  0  0  0  0  0  0  0  0  0
  119.9691    3.7283   -2.5551 H   0  0  0  0  0  0  0  0  0  0  0  0
  121.9207    2.1665   -1.5303 H   0  0  0  0  0  0  0  0  0  0  0  0
  121.8710   -2.1692    1.6417 H   0  0  0  0  0  0  0  0  0  0  0  0
  119.8969   -3.6664    2.6454 H   0  0  0  0  0  0  0  0  0  0  0  0
  118.2183   -0.5333    0.3606 H   0  0  0  0  0  0  0  0  0  0  0  0
  117.2735   -3.5966    2.5187 H   0  0  0  0  0  0  0  0  0  0  0  0
  125.8371   -3.3847    0.4942 C   0  0  0  0  0  0  0  0  0  0  0  0
  124.8682   -2.4613    0.3398 C   0  0  0  0  0  0  0  0  0  0  0  0
  125.5498   -1.1916    0.1703 C   0  0  0  0  0  0  0  0  0  0  0  0
  124.8769    0.0324   -0.0151 C   0  0  0  0  0  0  0  0  0  0  0  0
  125.5338    1.2574   -0.2175 C   0  0  0  0  0  0  0  0  0  0  0  0
  124.9499    2.5383   -0.3979 C   0  0  0  0  0  0  0  0  0  0  0  0
  125.9684    3.4319   -0.5685 C   0  0  0  0  0  0  0  0  0  0  0  0
  127.1952    2.7159   -0.4890 C   0  0  0  0  0  0  0  0  0  0  0  0
  126.8806    1.4092   -0.2731 N   0  0  0  0  0  0  0  0  0  0  0  0
  128.4673    3.2567   -0.6162 C   0  0  0  0  0  0  0  0  0  0  0  0
  129.6897    2.6111   -0.5252 C   0  0  0  0  0  0  0  0  0  0  0  0
  130.9515    3.3095   -0.7019 C   0  0  0  0  0  0  0  0  0  0  0  0
  131.9202    2.3884   -0.5329 C   0  0  0  0  0  0  0  0  0  0  0  0
  131.2392    1.1391   -0.2494 C   0  0  0  0  0  0  0  0  0  0  0  0
  129.9055    1.2998   -0.2606 N   0  0  0  0  0  0  0  0  0  0  0  0
  131.9136   -0.0728    0.0014 C   0  0  0  0  0  0  0  0  0  0  0  0
  131.2569   -1.2928    0.2337 C   0  0  0  0  0  0  0  0  0  0  0  0
  131.8399   -2.5577    0.5058 C   0  0  0  0  0  0  0  0  0  0  0  0
  130.8209   -3.4553    0.6510 C   0  0  0  0  0  0  0  0  0  0  0  0
  129.5944   -2.7552    0.4782 C   0  0  0  0  0  0  0  0  0  0  0  0
  129.9099   -1.4542    0.2315 N   0  0  0  0  0  0  0  0  0  0  0  0
  128.3222   -3.3067    0.5462 C   0  0  0  0  0  0  0  0  0  0  0  0
  127.0993   -2.6692    0.4138 C   0  0  0  0  0  0  0  0  0  0  0  0
  126.8836   -1.3471    0.2106 N   0  0  0  0  0  0  0  0  0  0  0  0
  125.7435   -4.4432    0.6444 H   0  0  0  0  0  0  0  0  0  0  0  0
  123.8037   -2.5910    0.3202 H   0  0  0  0  0  0  0  0  0  0  0  0
  123.8967    2.7388   -0.3851 H   0  0  0  0  0  0  0  0  0  0  0  0
  125.8874    4.4891   -0.7310 H   0  0  0  0  0  0  0  0  0  0  0  0
  127.5274    0.6363   -0.1595 H   0  0  0  0  0  0  0  0  0  0  0  0
  128.5061    4.3203   -0.8096 H   0  0  0  0  0  0  0  0  0  0  0  0
  131.0450    4.3545   -0.9268 H   0  0  0  0  0  0  0  0  0  0  0  0
  132.9842    2.5021   -0.6036 H   0  0  0  0  0  0  0  0  0  0  0  0
  132.8927   -2.7423    0.5887 H   0  0  0  0  0  0  0  0  0  0  0  0
  130.9013   -4.5039    0.8621 H   0  0  0  0  0  0  0  0  0  0  0  0
  129.2641   -0.6887    0.0715 H   0  0  0  0  0  0  0  0  0  0  0  0
  128.2839   -4.3721    0.7298 H   0  0  0  0  0  0  0  0  0  0  0  0
  136.9538   -3.3679   -0.6779 C   0  0  0  0  0  0  0  0  0  0  0  0
  135.9669   -2.4677   -0.5025 C   0  0  0  0  0  0  0  0  0  0  0  0
  136.6225   -1.2099   -0.1967 C   0  0  0  0  0  0  0  0  0  0  0  0
  135.9240   -0.0132    0.0592 C   0  0  0  0  0  0  0  0  0  0  0  0
  136.5548    1.2125    0.3310 C   0  0  0  0  0  0  0  0  0  0  0  0
  135.9428    2.4560    0.6368 C   0  0  0  0  0  0  0  0  0  0  0  0
  136.9412    3.3681    0.8270 C   0  0  0  0  0  0  0  0  0  0  0  0
  138.1838    2.6992    0.6464 C   0  0  0  0  0  0  0  0  0  0  0  0
  137.8980    1.4013    0.3509 N   0  0  0  0  0  0  0  0  0  0  0  0
  139.4437    3.2709    0.7582 C   0  0  0  0  0  0  0  0  0  0  0  0
  140.6799    2.6610    0.6175 C   0  0  0  0  0  0  0  0  0  0  0  0
  141.9284    3.3871    0.7779 C   0  0  0  0  0  0  0  0  0  0  0  0
  142.9153    2.4896    0.5886 C   0  0  0  0  0  0  0  0  0  0  0  0
  142.2576    1.2256    0.3132 C   0  0  0  0  0  0  0  0  0  0  0  0
  140.9208    1.3578    0.3371 N   0  0  0  0  0  0  0  0  0  0  0  0
  142.9542    0.0248    0.0766 C   0  0  0  0  0  0  0  0  0  0  0  0
  142.3249   -1.2084   -0.1587 C   0  0  0  0  0  0  0  0  0  0  0  0
  142.9387   -2.4595   -0.4288 C   0  0  0  0  0  0  0  0  0  0  0  0
  141.9406   -3.3731   -0.6138 C   0  0  0  0  0  0  0  0  0  0  0  0
  140.6971   -2.6979   -0.4644 C   0  0  0  0  0  0  0  0  0  0  0  0
  140.9816   -1.3958   -0.1878 N   0  0  0  0  0  0  0  0  0  0  0  0
  139.4369   -3.2648   -0.5960 C   0  0  0  0  0  0  0  0  0  0  0  0
  138.2012   -2.6485   -0.4832 C   0  0  0  0  0  0  0  0  0  0  0  0
  137.9589   -1.3463   -0.1974 N   0  0  0  0  0  0  0  0  0  0  0  0
  136.8815   -4.4113   -0.9182 H   0  0  0  0  0  0  0  0  0  0  0  0
  134.9056   -2.6004   -0.5798 H   0  0  0  0  0  0  0  0  0  0  0  0
  134.8855    2.6161    0.7140 H   0  0  0  0  0  0  0  0  0  0  0  0
  136.8365    4.4068    1.0735 H   0  0  0  0  0  0  0  0  0  0  0  0
  138.5631    0.6566    0.1731 H   0  0  0  0  0  0  0  0  0  0  0  0
  139.4594    4.3269    0.9919 H   0  0  0  0  0  0  0  0  0  0  0  0
  142.0015    4.4331    1.0063 H   0  0  0  0  0  0  0  0  0  0  0  0
  143.9780    2.6275    0.6373 H   0  0  0  0  0  0  0  0  0  0  0  0
  143.9970   -2.6233   -0.4845 H   0  0  0  0  0  0  0  0  0  0  0  0
  142.0459   -4.4168   -0.8375 H   0  0  0  0  0  0  0  0  0  0  0  0
  140.3159   -0.6470   -0.0312 H   0  0  0  0  0  0  0  0  0  0  0  0
  139.4208   -4.3219   -0.8249 H   0  0  0  0  0  0  0  0  0  0  0  0
  147.9408   -3.1381    1.2852 C   0  0  0  0  0  0  0  0  0  0  0  0
  146.9679   -2.2638    0.9620 C   0  0  0  0  0  0  0  0  0  0  0  0
  147.6447   -1.0738    0.4800 C   0  0  0  0  0  0  0  0  0  0  0  0
  146.9658    0.0854    0.0565 C   0  0  0  0  0  0  0  0  0  0  0  0
  147.6133    1.2511   -0.3829 C   0  0  0  0  0  0  0  0  0  0  0  0
  147.0194    2.4529   -0.8498 C   0  0  0  0  0  0  0  0  0  0  0  0
  148.0319    3.3017   -1.1952 C   0  0  0  0  0  0  0  0  0  0  0  0
  149.2647    2.6348   -0.9492 C   0  0  0  0  0  0  0  0  0  0  0  0
  148.9594    1.4031   -0.4563 N   0  0  0  0  0  0  0  0  0  0  0  0
  150.5336    3.1449   -1.1864 C   0  0  0  0  0  0  0  0  0  0  0  0
  151.7594    2.5322   -0.9798 C   0  0  0  0  0  0  0  0  0  0  0  0
  153.0173    3.1855   -1.3003 C   0  0  0  0  0  0  0  0  0  0  0  0
  153.9906    2.3124   -0.9750 C   0  0  0  0  0  0  0  0  0  0  0  0
  153.3162    1.1371   -0.4561 C   0  0  0  0  0  0  0  0  0  0  0  0
  151.9817    1.2944   -0.4766 N   0  0  0  0  0  0  0  0  0  0  0  0
  153.9961   -0.0096   -0.0010 C   0  0  0  0  0  0  0  0  0  0  0  0
  153.3472   -1.1648    0.4649 C   0  0  0  0  0  0  0  0  0  0  0  0
  153.9401   -2.3541    0.9637 C   0  0  0  0  0  0  0  0  0  0  0  0
  152.9274   -3.2061    1.3005 C   0  0  0  0  0  0  0  0  0  0  0  0
  151.6952   -2.5526    1.0196 C   0  0  0  0  0  0  0  0  0  0  0  0
  152.0010   -1.3245    0.5182 N   0  0  0  0  0  0  0  0  0  0  0  0
  150.4261   -3.0748    1.2285 C   0  0  0  0  0  0  0  0  0  0  0  0
  149.2001   -2.4715    0.9994 C   0  0  0  0  0  0  0  0  0  0  0  0
  148.9791   -1.2262    0.5140 N   0  0  0  0  0  0  0  0  0  0  0  0
  147.8517   -4.1320    1.6800 H   0  0  0  0  0  0  0  0  0  0  0  0
  145.9038   -2.3713    1.0431 H   0  0  0  0  0  0  0  0  0  0  0  0
  145.9635    2.6277   -0.9188 H   0  0  0  0  0  0  0  0  0  0  0  0
  147.9433    4.2959   -1.5881 H   0  0  0  0  0  0  0  0  0  0  0  0
  149.6126    0.6763   -0.1850 H   0  0  0  0  0  0  0  0  0  0  0  0
  150.5670    4.1475   -1.5911 H   0  0  0  0  0  0  0  0  0  0  0  0
  153.1052    4.1702   -1.7175 H   0  0  0  0  0  0  0  0  0  0  0  0
  155.0535    2.4115   -1.0780 H   0  0  0  0  0  0  0  0  0  0  0  0
  154.9951   -2.5192    1.0602 H   0  0  0  0  0  0  0  0  0  0  0  0
  153.0157   -4.1938    1.7094 H   0  0  0  0  0  0  0  0  0  0  0  0
  151.3481   -0.6059    0.2253 H   0  0  0  0  0  0  0  0  0  0  0  0
  150.3932   -4.0788    1.6297 H   0  0  0  0  0  0  0  0  0  0  0  0
  1  2  2  0  0  0  0
  2  3  1  0  0  0  0
  3  4  4  0  0  0  0
  4  5  4  0  0  0  0
  5  6  4  0  0  0  0
  6  7  2  0  0  0  0
  7  8  4  0  0  0  0
  5  9  4  0  0  0  0
  8  9  4  0  0  0  0
  8 10  4  0  0  0  0
 10 11  4  0  0  0  0
 11 12  1  0  0  0  0
 12 13  2  0  0  0  0
 13 14  1  0  0  0  0
 11 15  4  0  0  0  0
 14 15  4  0  0  0  0
 14 16  4  0  0  0  0
 16 17  4  0  0  0  0
 17 18  4  0  0  0  0
 18 19  2  0  0  0  0
 19 20  4  0  0  0  0
 17 21  4  0  0  0  0
 20 21  4  0  0  0  0
 20 22  4  0  0  0  0
  1 23  1  0  0  0  0
 22 23  4  0  0  0  0
  3 24  4  0  0  0  0
 23 24  4  0  0  0  0
  1 25  1  0  0  0  0
  2 26  1  0  0  0  0
  6 27  1  0  0  0  0
  7 28  1  0  0  0  0
  9 29  1  0  0  0  0
 10 30  1  0  0  0  0
 12 31  1  0  0  0  0
 13 32  1  0  0  0  0
 16 33  1  0  0  0  0
 18 34  1  0  0  0  0
 19 35  1  0  0  0  0
 21 36  1  0  0  0  0
 22 37  1  0  0  0  0
 38 39  2  0  0  0  0
 39 40  1  0  0  0  0
 40 41  4  0  0  0  0
 41 42  4  0  0  0  0
 42 43  4  0  0  0  0
 43 44  2  0  0  0  0
 44 45  4  0  0  0  0
 42 46  4  0  0  0  0
 45 46  4  0  0  0  0
 45 47  4  0  0  0  0
 47 48  4  0  0  0  0
 48 49  1  0  0  0  0
 49 50  2  0  0  0  0
 50 51  1  0  0  0  0
 48 52  4  0  0  0  0
 51 52  4  0  0  0  0
 51 53  4  0  0  0  0
 53 54  4  0  0  0  0
 54 55  4  0  0  0  0
 55 56  2  0  0  0  0
 56 57  4  0  0  0  0
 54 58  4  0  0  0  0
 57 58  4  0  0  0  0
 57 59  4  0  0  0  0
 38 60  1  0  0  0  0
 59 60  4  0  0  0  0
 40 61  4  0  0  0  0
 60 61  4  0  0  0  0
 38 62  1  0  0  0  0
 39 63  1  0  0  0  0
 43 64  1  0  0  0  0
 44 65  1  0  0  0  0
 46 66  1  0  0  0  0
 47 67  1  0  0  0  0
 49 68  1  0  0  0  0
 50 69  1  0  0  0  0
 53 70  1  0  0  0  0
 55 71  1  0  0  0  0
 56 72  1  0  0  0  0
 58 73  1  0  0  0  0
 59 74  1  0  0  0  0
  4 75  1  0  0  0  0
 75 76  3  0  0  0  0
 77 78  3  0  0  0  0
 79 80  3  0  0  0  0
 81 82  3  0  0  0  0
 83 84  3  0  0  0  0
 85 86  3  0  0  0  0
 87 88  3  0  0  0  0
 41 90  1  0  0  0  0
 89 90  3  0  0  0  0
 91 92  2  0  0  0  0
 92 93  1  0  0  0  0
 76 94  1  0  0  0  0
 93 94  4  0  0  0  0
 94 95  4  0  0  0  0
 95 96  4  0  0  0  0
 96 97  2  0  0  0  0
 97 98  4  0  0  0  0
 95 99  4  0  0  0  0
 98 99  4  0  0  0  0
 98100  4  0  0  0  0
100101  4  0  0  0  0
101102  1  0  0  0  0
102103  2  0  0  0  0
103104  1  0  0  0  0
101105  4  0  0  0  0
104105  4  0  0  0  0
 77106  1  0  0  0  0
104106  4  0  0  0  0
106107  4  0  0  0  0
107108  4  0  0  0  0
108109  2  0  0  0  0
109110  4  0  0  0  0
107111  4  0  0  0  0
110111  4  0  0  0  0
110112  4  0  0  0  0
 91113  1  0  0  0  0
112113  4  0  0  0  0
 93114  4  0  0  0  0
113114  4  0  0  0  0
 91115  1  0  0  0  0
 92116  1  0  0  0  0
 96117  1  0  0  0  0
 97118  1  0  0  0  0
 99119  1  0  0  0  0
100120  1  0  0  0  0
102121  1  0  0  0  0
103122  1  0  0  0  0
108123  1  0  0  0  0
109124  1  0  0  0  0
111125  1  0  0  0  0
112126  1  0  0  0  0
127128  2  0  0  0  0
128129  1  0  0  0  0
 78130  1  0  0  0  0
129130  4  0  0  0  0
130131  4  0  0  0  0
131132  4  0  0  0  0
132133  2  0  0  0  0
133134  4  0  0  0  0
131135  4  0  0  0  0
134135  4  0  0  0  0
134136  4  0  0  0  0
136137  4  0  0  0  0
137138  1  0  0  0  0
138139  2  0  0  0  0
139140  1  0  0  0  0
137141  4  0  0  0  0
140141  4  0  0  0  0
 79142  1  0  0  0  0
140142  4  0  0  0  0
142143  4  0  0  0  0
143144  4  0  0  0  0
144145  2  0  0  0  0
145146  4  0  0  0  0
143147  4  0  0  0  0
146147  4  0  0  0  0
146148  4  0  0  0  0
127149  1  0  0  0  0
148149  4  0  0  0  0
129150  4  0  0  0  0
149150  4  0  0  0  0
127151  1  0  0  0  0
128152  1  0  0  0  0
132153  1  0  0  0  0
133154  1  0  0  0  0
135155  1  0  0  0  0
136156  1  0  0  0  0
138157  1  0  0  0  0
139158  1  0  0  0  0
144159  1  0  0  0  0
145160  1  0  0  0  0
147161  1  0  0  0  0
148162  1  0  0  0  0
163164  2  0  0  0  0
164165  1  0  0  0  0
 80166  1  0  0  0  0
165166  4  0  0  0  0
166167  4  0  0  0  0
167168  4  0  0  0  0
168169  2  0  0  0  0
169170  4  0  0  0  0
167171  4  0  0  0  0
170171  4  0  0  0  0
170172  4  0  0  0  0
172173  4  0  0  0  0
173174  1  0  0  0  0
174175  2  0  0  0  0
175176  1  0  0  0  0
173177  4  0  0  0  0
176177  4  0  0  0  0
 81178  1  0  0  0  0
176178  4  0  0  0  0
178179  4  0  0  0  0
179180  4  0  0  0  0
180181  2  0  0  0  0
181182  4  0  0  0  0
179183  4  0  0  0  0
182183  4  0  0  0  0
182184  4  0  0  0  0
163185  1  0  0  0  0
184185  4  0  0  0  0
165186  4  0  0  0  0
185186  4  0  0  0  0
163187  1  0  0  0  0
164188  1  0  0  0  0
168189  1  0  0  0  0
169190  1  0  0  0  0
171191  1  0  0  0  0
172192  1  0  0  0  0
174193  1  0  0  0  0
175194  1  0  0  0  0
180195  1  0  0  0  0
181196  1  0  0  0  0
183197  1  0  0  0  0
184198  1  0  0  0  0
199200  2  0  0  0  0
200201  1  0  0  0  0
 82202  1  0  0  0  0
201202  4  0  0  0  0
202203  4  0  0  0  0
203204  4  0  0  0  0
204205  2  0  0  0  0
205206  4  0  0  0  0
203207  4  0  0  0  0
206207  4  0  0  0  0
206208  4  0  0  0  0
208209  4  0  0  0  0
209210  1  0  0  0  0
210211  2  0  0  0  0
211212  1  0  0  0  0
209213  4  0  0  0  0
212213  4  0  0  0  0
 83214  1  0  0  0  0
212214  4  0  0  0  0
214215  4  0  0  0  0
215216  4  0  0  0  0
216217  2  0  0  0  0
217218  4  0  0  0  0
215219  4  0  0  0  0
218219  4  0  0  0  0
218220  4  0  0  0  0
199221  1  0  0  0  0
220221  4  0  0  0  0
201222  4  0  0  0  0
221222  4  0  0  0  0
199223  1  0  0  0  0
200224  1  0  0  0  0
204225  1  0  0  0  0
205226  1  0  0  0  0
207227  1  0  0  0  0
208228  1  0  0  0  0
210229  1  0  0  0  0
211230  1  0  0  0  0
216231  1  0  0  0  0
217232  1  0  0  0  0
219233  1  0  0  0  0
220234  1  0  0  0  0
235236  2  0  0  0  0
236237  1  0  0  0  0
 84238  1  0  0  0  0
237238  4  0  0  0  0
238239  4  0  0  0  0
239240  4  0  0  0  0
240241  2  0  0  0  0
241242  4  0  0  0  0
239243  4  0  0  0  0
242243  4  0  0  0  0
242244  4  0  0  0  0
244245  4  0  0  0  0
245246  1  0  0  0  0
246247  2  0  0  0  0
247248  1  0  0  0  0
245249  4  0  0  0  0
248249  4  0  0  0  0
 85250  1  0  0  0  0
248250  4  0  0  0  0
250251  4  0  0  0  0
251252  4  0  0  0  0
252253  2  0  0  0  0
253254  4  0  0  0  0
251255  4  0  0  0  0
254255  4  0  0  0  0
254256  4  0  0  0  0
235257  1  0  0  0  0
256257  4  0  0  0  0
237258  4  0  0  0  0
257258  4  0  0  0  0
235259  1  0  0  0  0
236260  1  0  0  0  0
240261  1  0  0  0  0
241262  1  0  0  0  0
243263  1  0  0  0  0
244264  1  0  0  0  0
246265  1  0  0  0  0
247266  1  0  0  0  0
252267  1  0  0  0  0
253268  1  0  0  0  0
255269  1  0  0  0  0
256270  1  0  0  0  0
271272  2  0  0  0  0
272273  1  0  0  0  0
 86274  1  0  0  0  0
273274  4  0  0  0  0
274275  4  0  0  0  0
275276  4  0  0  0  0
276277  2  0  0  0  0
277278  4  0  0  0  0
275279  4  0  0  0  0
278279  4  0  0  0  0
278280  4  0  0  0  0
280281  4  0  0  0  0
281282  1  0  0  0  0
282283  2  0  0  0  0
283284  1  0  0  0  0
281285  4  0  0  0  0
284285  4  0  0  0  0
 87286  1  0  0  0  0
284286  4  0  0  0  0
286287  4  0  0  0  0
287288  4  0  0  0  0
288289  2  0  0  0  0
289290  4  0  0  0  0
287291  4  0  0  0  0
290291  4  0  0  0  0
290292  4  0  0  0  0
271293  1  0  0  0  0
292293  4  0  0  0  0
273294  4  0  0  0  0
293294  4  0  0  0  0
271295  1  0  0  0  0
272296  1  0  0  0  0
276297  1  0  0  0  0
277298  1  0  0  0  0
279299  1  0  0  0  0
280300  1  0  0  0  0
282301  1  0  0  0  0
283302  1  0  0  0  0
288303  1  0  0  0  0
289304  1  0  0  0  0
291305  1  0  0  0  0
292306  1  0  0  0  0
307308  2  0  0  0  0
308309  1  0  0  0  0
 88310  1  0  0  0  0
309310  4  0  0  0  0
310311  4  0  0  0  0
311312  4  0  0  0  0
312313  2  0  0  0  0
313314  4  0  0  0  0
311315  4  0  0  0  0
314315  4  0  0  0  0
314316  4  0  0  0  0
316317  4  0  0  0  0
317318  1  0  0  0  0
318319  2  0  0  0  0
319320  1  0  0  0  0
317321  4  0  0  0  0
320321  4  0  0  0  0
 89322  1  0  0  0  0
320322  4  0  0  0  0
322323  4  0  0  0  0
323324  4  0  0  0  0
324325  2  0  0  0  0
325326  4  0  0  0  0
323327  4  0  0  0  0
326327  4  0  0  0  0
326328  4  0  0  0  0
307329  1  0  0  0  0
328329  4  0  0  0  0
309330  4  0  0  0  0
329330  4  0  0  0  0
307331  1  0  0  0  0
308332  1  0  0  0  0
312333  1  0  0  0  0
313334  1  0  0  0  0
315335  1  0  0  0  0
316336  1  0  0  0  0
318337  1  0  0  0  0
319338  1  0  0  0  0
324339  1  0  0  0  0
325340  1  0  0  0  0
327341  1  0  0  0  0
328342  1  0  0  0  0
M  END
