78

Cu 6.921023 0.023232 -0.005106
C 9.250014 -3.123561 1.317583
C 10.166121 -2.179353 1.267301
C 9.754942 -1.125449 0.346009
C 10.373812 -0.001103 -0.000401
C 9.669770 1.218845 -0.364506
C 9.997880 2.178900 -1.211979
C 8.963101 3.195185 -1.228877
C 8.026833 2.818723 -0.381986
N 8.428823 1.585712 0.181831
C 6.765758 3.463723 -0.002834
C 5.670541 2.828940 0.347926
C 4.596915 3.146896 1.316954
C 3.759353 2.150142 1.239788
C 4.197650 1.146459 0.259336
N 5.302588 1.585312 -0.224956
C 3.586815 -0.106812 -0.154212
C 4.250976 -1.211318 -0.408636
C 3.877127 -2.274260 -1.366164
C 4.825874 -3.168016 -1.277144
C 5.811598 -2.730566 -0.294267
N 5.458552 -1.584761 0.202531
C 7.042486 -3.386636 0.151454
C 8.165528 -2.740775 0.418575
N 8.494128 -1.493334 -0.179828
H 9.310276 -4.033341 1.935130
H 11.082448 -2.219303 1.845349
H 10.925246 2.195696 -1.813123
H 8.980000 4.099874 -1.841499
H 6.718035 4.558525 -0.006611
H 4.544094 4.025621 1.941947
H 2.847722 2.114472 1.857112
H 2.488565 -0.103901 -0.253483
H 3.008271 -2.326725 -2.015114
H 4.823028 -4.084324 -1.875904
H 7.007004 -4.482438 0.263379
C 11.416165 0.013240 0.004807
C 12.631698 -0.012103 -0.005673
C 14.053215 -0.033527 -0.009848
C 15.261776 -0.035738 -0.009743
C 16.682852 -0.016778 -0.010370
C 17.893994 0.013240 0.004807
Cu 22.421566 -0.010370 -0.164054
C 19.875697 3.226974 1.127797
C 18.949337 2.299799 0.983249
C 19.551350 1.131019 0.326505
C 18.958398 -0.001103 -0.000401
C 19.590712 -1.314290 -0.022292
C 19.070049 -2.533852 0.099220
C 20.105596 -3.535134 0.010653
C 21.258971 -2.879665 -0.167059
N 20.972518 -1.508940 -0.191384
C 22.600595 -3.451287 -0.315398
C 23.742789 -2.846057 -0.146051
C 25.021501 -3.264909 0.490505
C 25.821377 -2.259261 0.352295
C 25.173015 -1.133691 -0.357049
N 23.982886 -1.531235 -0.615362
C 25.682340 0.180662 -0.743870
C 25.022958 1.309823 -0.646941
C 25.420765 2.594528 -1.267351
C 24.513568 3.457654 -0.926210
C 23.507010 2.789441 -0.087816
N 23.836934 1.550743 0.049622
C 22.311562 3.360700 0.525744
C 21.144939 2.750315 0.585238
N 20.893924 1.447951 0.100908
H 19.684073 4.209175 1.595572
H 17.907022 2.424651 1.315186
H 17.984033 -2.700876 0.247397
H 19.933520 -4.596644 0.080198
H 22.661523 -4.519403 -0.601476
H 25.174650 -4.228229 0.951607
H 26.843683 -2.262018 0.719264
H 26.716406 0.147333 -1.140817
H 26.296830 2.797207 -1.890318
H 24.553220 4.508894 -1.247837
H 22.398160 4.350376 0.956304
