114

C 8.158898 -1.674236 -3.278363
C 7.364583 -1.762228 -2.220364
C 7.894100 -0.974458 -1.132867
C 7.535380 -0.655675 0.184658
C 8.405219 -0.278961 1.219878
C 8.073727 -0.597808 2.547071
C 9.067147 -0.112839 3.340882
C 9.994583 0.498909 2.460973
N 9.571170 0.383845 1.195096
C 11.155017 1.101872 2.984304
C 12.073799 1.898231 2.299957
C 12.959884 3.005803 2.602928
C 13.603174 3.354593 1.492047
C 13.145183 2.475081 0.442447
N 12.248816 1.645099 0.984004
C 13.471427 2.374776 -0.914098
C 12.823338 1.522682 -1.838234
C 13.627707 0.682546 -2.635102
C 12.762823 -0.074273 -3.372849
C 11.464880 0.332252 -2.998293
N 11.520405 1.301861 -2.075308
C 10.365775 -0.351691 -3.569202
C 9.244709 -0.808358 -2.888344
N 9.048553 -0.416352 -1.608483
H 7.980616 -2.180148 -4.234016
H 6.450901 -2.348817 -2.199810
H 7.174848 -1.141218 2.912423
H 9.126290 -0.189456 4.440724
H 10.085926 0.765435 0.282086
H 11.437311 0.974943 4.039946
H 13.062161 3.457980 3.579427
H 14.331784 4.160547 1.420818
H 14.308102 2.995734 -1.237098
H 14.732136 0.623318 -2.694683
H 13.066818 -0.836004 -4.110113
H 10.658735 1.855092 -1.632847
H 10.358208 -0.581779 -4.638829
C -8.850716 -1.295761 3.425413
C -7.811700 -1.390136 2.605448
C -8.081637 -0.631725 1.420529
C -7.384484 -0.360330 0.204787
C -7.946266 0.203036 -0.957819
C -7.152117 1.133270 -1.660415
C -7.918187 1.551155 -2.690883
C -9.173907 0.886947 -2.626279
N -9.142600 0.075847 -1.559366
C -10.149174 1.198792 -3.575181
C -11.499556 1.516042 -3.310502
C -12.657699 1.893904 -4.105362
C -13.664716 2.070776 -3.264787
C -13.239089 1.825618 -1.897203
N -11.951762 1.508868 -2.059430
C -13.807289 1.847530 -0.631638
C -13.339097 1.206610 0.553786
C -14.188403 0.494474 1.417753
C -13.453593 -0.010445 2.436496
C -12.128193 0.405001 2.183543
N -12.099565 1.130699 1.052448
C -11.106459 0.027106 3.068518
C -9.815327 -0.455265 2.754508
N -9.293776 -0.109707 1.594650
H -9.017506 -1.726345 4.402734
H -6.883525 -1.959541 2.791377
H -6.120453 1.462805 -1.439401
H -7.560790 2.284083 -3.433101
H -9.971233 -0.607286 -1.251182
H -9.929112 1.246522 -4.634871
H -12.668952 2.003014 -5.180024
H -14.689175 2.363825 -3.530005
H -14.730036 2.397369 -0.516139
H -15.293910 0.371135 1.282135
H -13.816448 -0.604363 3.275865
H -11.159518 1.607951 0.621625
H -11.296330 0.081929 4.176922
C 6.086877 -0.744911 0.386477
C 4.877288 -0.784175 0.543178
C -4.798890 -0.959546 0.461134
C -6.001188 -0.702054 0.346176
C 2.631677 0.892348 3.796133
C 3.581936 0.437487 2.997036
C 2.931265 -0.154529 1.862649
C 3.435790 -0.782670 0.723209
C 2.682654 -1.383874 -0.322081
C 3.035351 -1.248642 -1.685132
C 2.105476 -1.895531 -2.430076
C 1.183324 -2.426743 -1.524723
N 1.558697 -2.106257 -0.278107
C 0.058532 -3.141274 -1.987688
C -1.288385 -2.962472 -1.619913
C -2.535132 -3.505440 -2.104876
C -3.495953 -2.961804 -1.375898
C -2.913279 -2.065278 -0.411613
N -1.599130 -2.131740 -0.632263
C -3.398084 -1.219466 0.620828
C -2.666595 -0.696955 1.698803
C -3.126948 -0.772186 3.041786
C -2.196716 -0.210602 3.839495
C -1.130672 0.230936 3.017731
N -1.475137 -0.086182 1.765024
C -0.005166 0.840585 3.570082
C 1.330146 0.608583 3.203525
N 1.624789 -0.003845 2.078235
H 2.795662 1.402771 4.759331
H 4.669455 0.501059 3.174609
H 3.929545 -0.701712 -2.063978
H 2.076381 -1.998829 -3.521430
H 1.009258 -2.429098 0.666556
H 0.187790 -3.941502 -2.765719
H -2.644241 -4.220965 -2.912601
H -4.579324 -3.134669 -1.454955
H -4.092681 -1.212851 3.368560
H -2.287956 -0.125984 4.937331
H -0.833137 0.159604 0.848596
H -0.085113 1.568713 4.385530
