185

Zn 34.068899 0.114258 0.040681
C 36.504172 -3.294811 0.854470
C 37.482722 -2.397270 0.585727
C 36.830443 -1.150328 0.303011
C 37.502894 0.038522 -0.018474
C 36.872716 1.255343 -0.320363
C 37.569019 2.472371 -0.627256
C 36.622061 3.411467 -0.865684
C 35.349948 2.767820 -0.697716
N 35.534131 1.460078 -0.362968
C 34.126594 3.398217 -0.853083
C 32.882658 2.816336 -0.675125
C 31.628502 3.500740 -0.836334
C 30.655675 2.600492 -0.563037
C 31.314734 1.365045 -0.234966
N 32.661524 1.525311 -0.313168
C 30.662764 0.193009 0.112162
C 31.274256 -1.008521 0.430809
C 30.573279 -2.212930 0.786425
C 31.514084 -3.158294 1.015914
C 32.790598 -2.532265 0.801513
N 32.614334 -1.231305 0.450455
C 34.012633 -3.171091 0.929031
C 35.256559 -2.595828 0.729767
N 35.486465 -1.296642 0.389767
H 36.603089 -4.332244 1.109906
H 38.543948 -2.551602 0.562809
H 38.636197 2.580217 -0.639813
H 36.757482 4.443504 -1.126154
H 34.145965 4.442243 -1.133433
H 31.525762 4.530607 -1.120038
H 29.591899 2.741191 -0.576371
H 29.582325 0.217999 0.136103
H 29.505682 -2.303999 0.846426
H 31.375894 -4.183144 1.302844
H 33.995063 -4.215747 1.207160
Zn 77.633903 0.058431 0.002409
C 75.178128 2.548420 2.447145
C 74.203964 1.869338 1.795017
C 74.863286 0.976157 0.885474
C 74.197318 0.100456 0.014236
C 74.836461 -0.787438 -0.865228
C 74.149231 -1.659017 -1.775209
C 75.101848 -2.360467 -2.435387
C 76.368873 -1.911116 -1.932338
N 76.175988 -0.951748 -0.984236
C 77.595549 -2.392429 -2.358480
C 78.836077 -1.967854 -1.913122
C 80.093973 -2.485838 -2.378699
C 81.062123 -1.809101 -1.718209
C 80.396380 -0.876800 -0.848679
N 79.050201 -0.997790 -0.985891
C 81.042444 0.012896 -0.005893
C 80.424129 0.919596 0.839551
C 81.118508 1.833947 1.705696
C 80.171848 2.536885 2.369961
C 78.898353 2.052939 1.910089
N 79.082258 1.076799 0.982733
C 77.671656 2.511888 2.359814
C 76.430373 2.063574 1.939792
N 76.207368 1.106628 0.995943
H 75.073480 3.303131 3.202646
H 73.140920 1.944239 1.916223
H 73.084172 -1.704084 -1.893002
H 74.973354 -3.108523 -3.193798
H 77.582100 -3.168152 -3.111509
H 80.202120 -3.261861 -3.112061
H 82.126811 -1.916370 -1.799377
H 82.123354 -0.001541 -0.008338
H 82.186068 1.912482 1.782059
H 80.304276 3.309944 3.102463
H 77.682703 3.288684 3.111783
C 38.905922 0.008889 -0.037774
C 40.118321 -0.015778 -0.052007
C 49.795776 -0.095704 -0.059696
C 51.008442 -0.083331 -0.051524
C 60.686654 0.046364 -0.039955
C 61.899556 0.060733 -0.040208
C 71.580898 0.111447 0.028526
C 72.793857 0.109044 0.022456
Zn 44.957106 -0.081508 -0.080294
C 42.444741 -2.495578 2.381328
C 41.486632 -1.798976 1.723596
C 42.167134 -0.926979 0.809322
C 41.521151 -0.039711 -0.065188
C 42.180372 0.825355 -0.951912
C 41.513043 1.706269 -1.867282
C 42.481954 2.369857 -2.543126
C 43.737674 1.890225 -2.041121
N 43.523226 0.949706 -1.078781
C 44.975764 2.326390 -2.480826
C 46.206909 1.880480 -2.031791
C 47.470268 2.352798 -2.521578
C 48.428764 1.673952 -1.846027
C 47.747283 0.790281 -0.943662
N 46.406549 0.931122 -1.074854
C 48.392823 -0.098712 -0.070593
C 47.733870 -0.988119 0.791617
C 48.401332 -1.885915 1.690337
C 47.432322 -2.563859 2.351652
C 46.176519 -2.074304 1.859370
N 46.391029 -1.118483 0.912198
C 44.938444 -2.506617 2.302801
C 43.707389 -2.041895 1.872667
N 43.507554 -1.087209 0.921109
H 42.322476 -3.242686 3.141659
H 40.421947 -1.848553 1.843581
H 40.448777 1.782842 -1.976646
H 42.371178 3.111456 -3.310616
H 44.981704 3.085208 -3.251036
H 47.592696 3.100338 -3.281417
H 49.494475 1.742249 -1.947395
H 49.465736 -1.964661 1.797789
H 47.542866 -3.320002 3.104791
H 44.932439 -3.273424 3.065056
Zn 55.847149 -0.018230 -0.039161
C 53.398645 -3.455883 0.587367
C 52.422340 -2.534579 0.402764
C 53.079729 -1.277079 0.188567
C 52.411287 -0.065628 -0.044417
C 53.047518 1.164234 -0.272195
C 52.356428 2.403888 -0.484443
C 53.307557 3.352040 -0.664319
C 54.576019 2.690002 -0.556650
N 54.386769 1.362330 -0.315231
C 55.802275 3.319679 -0.683935
C 57.045187 2.719857 -0.575666
C 58.295183 3.406474 -0.733371
C 59.271547 2.483727 -0.556746
C 58.614646 1.237209 -0.285064
N 57.270527 1.403032 -0.306963
C 59.283956 0.028294 -0.039433
C 58.647103 -1.197757 0.208122
C 59.337221 -2.425323 0.483723
C 58.385963 -3.373467 0.662906
C 57.117973 -2.721419 0.502421
N 57.307864 -1.399728 0.230101
C 55.891827 -3.354868 0.610988
C 54.648802 -2.759613 0.480659
N 54.423782 -1.438189 0.235863
H 53.296425 -4.507466 0.774423
H 51.359236 -2.677685 0.396984
H 51.289852 2.518225 -0.479918
H 53.176997 4.400899 -0.848901
H 55.787809 4.381280 -0.888570
H 58.397336 4.451670 -0.953359
H 60.334471 2.615079 -0.614885
H 60.403249 -2.527829 0.543047
H 58.516234 -4.414733 0.886557
H 55.906504 -4.416017 0.817999
Zn 66.739879 0.088917 -0.007317
C 64.272204 -3.193901 -1.161191
C 63.301377 -2.291592 -0.879521
C 63.964951 -1.098837 -0.436678
C 63.302296 0.071798 -0.036040
C 63.946287 1.250495 0.370936
C 63.263744 2.438378 0.797669
C 64.220818 3.350784 1.093489
C 65.484818 2.715512 0.853461
N 65.286766 1.438834 0.420088
C 66.715043 3.323888 1.034405
C 67.954294 2.740881 0.831840
C 69.208180 3.414065 1.013982
C 70.179038 2.513762 0.726163
C 69.515234 1.290868 0.376090
N 68.171928 1.454258 0.439390
C 70.177808 0.104588 0.024663
C 69.532679 -1.089539 -0.333632
C 70.213639 -2.308972 -0.662525
C 69.256484 -3.218196 -0.967670
C 67.993727 -2.553956 -0.817195
N 68.192426 -1.264316 -0.424430
C 66.764184 -3.146564 -1.048549
C 65.525490 -2.548044 -0.895078
N 65.307754 -1.274139 -0.462925
H 64.164280 -4.199903 -1.518320
H 62.238415 -2.402272 -0.970815
H 62.198285 2.539565 0.868577
H 64.097016 4.357114 1.444517
H 66.707396 4.353049 1.365867
H 69.316489 4.437440 1.317522
H 71.242574 2.651973 0.732713
H 71.277859 -2.440088 -0.642369
H 69.379578 -4.242379 -1.262847
H 66.772256 -4.175778 -1.379865
