290

C 42.155146 3.423122 0.187277
C 43.112756 2.476707 0.137924
C 42.413979 1.207255 0.043886
C 43.077448 -0.034373 -0.026944
C 42.427882 -1.276968 -0.114509
C 43.032720 -2.560286 -0.186898
C 42.029267 -3.482864 -0.261966
C 40.790372 -2.782659 -0.237417
N 41.083938 -1.455717 -0.147014
C 39.522943 -3.342982 -0.296109
C 38.305398 -2.676815 -0.275436
C 37.027970 -3.371782 -0.345297
C 36.078762 -2.418803 -0.300738
C 36.783591 -1.149844 -0.203768
N 38.119412 -1.343291 -0.191429
C 36.137273 0.077830 -0.134169
C 36.762063 1.311902 -0.040737
C 36.155893 2.598589 0.034423
C 37.155806 3.522207 0.113459
C 38.398419 2.824279 0.088691
N 38.108339 1.499965 -0.004556
C 39.666185 3.383947 0.147188
C 40.884266 2.721451 0.122274
N 41.082653 1.383976 0.036006
H 42.261623 4.488418 0.259967
H 44.179505 2.588545 0.161120
H 44.090439 -2.738679 -0.181531
H 42.127366 -4.548885 -0.328677
H 40.410807 -0.699031 -0.109721
H 39.481939 -4.421163 -0.366650
H 36.916015 -4.436728 -0.417641
H 35.011034 -2.523550 -0.328090
H 35.057054 0.070854 -0.154192
H 35.098310 2.777923 0.027905
H 37.056700 4.588192 0.182706
H 38.779458 0.742323 -0.043156
H 39.708733 4.462066 0.219448
C 133.872288 -3.411586 0.356698
C 132.913966 -2.466849 0.291401
C 133.611322 -1.200740 0.152645
C 132.946721 0.038101 0.050630
C 133.594749 1.277520 -0.082383
C 132.988342 2.557825 -0.187676
C 133.990373 3.478160 -0.300195
C 135.229907 2.779537 -0.266338
N 134.938161 1.455758 -0.133390
C 136.496382 3.338329 -0.353422
C 137.714396 2.673351 -0.324001
C 138.990871 3.366167 -0.425406
C 139.940838 2.415026 -0.361479
C 139.237402 1.149305 -0.221556
N 137.901680 1.342844 -0.202865
C 139.884838 -0.075818 -0.123021
C 139.261564 -1.306906 0.011039
C 139.869192 -2.590826 0.115969
C 138.870642 -3.512182 0.230724
C 137.627437 -2.815595 0.198939
N 137.915812 -1.494307 0.065825
C 136.360649 -3.373693 0.286551
C 135.142151 -2.712201 0.256803
N 134.942514 -1.377631 0.135439
H 133.766874 -4.474389 0.460697
H 131.847568 -2.577863 0.329671
H 131.930609 2.735847 -0.177268
H 133.890882 4.541654 -0.397946
H 135.612266 0.700919 -0.079788
H 136.536103 4.413942 -0.456450
H 139.101732 4.428582 -0.529602
H 141.008247 2.519113 -0.401187
H 140.964828 -0.069234 -0.153427
H 140.926774 -2.769923 0.103837
H 138.971028 -4.575799 0.328581
H 137.243833 -0.738296 0.012644
H 136.319383 -4.449357 0.389545
C 44.472988 -0.036234 -0.011478
C 45.693437 -0.027536 -0.001512
C 47.028657 -0.018337 0.010468
C 48.253337 -0.003640 0.008959
C 49.588329 0.007531 0.016866
C 50.808986 0.019703 0.020318
C 60.622684 -0.038394 0.018877
C 61.843507 -0.023868 0.012537
C 63.177959 -0.007569 0.003734
C 64.402840 0.010439 -0.007224
C 65.737354 0.027794 -0.012710
C 66.958149 0.044775 -0.018338
C 76.769340 -0.018019 0.004434
C 77.990172 -0.006943 0.005119
C 79.324725 0.005950 0.005541
C 80.549793 0.021000 0.005543
C 81.884349 0.032179 0.005950
C 83.105258 0.041935 0.006324
C 92.920946 -0.027876 0.014188
C 94.141757 -0.015583 0.014989
C 95.476283 -0.002279 0.014755
C 96.701373 0.016682 0.016464
C 98.035903 0.029902 0.012837
C 99.256756 0.038710 0.006952
C 109.067208 -0.025161 -0.007326
C 110.288008 -0.013389 -0.001535
C 111.622506 0.001197 0.004644
C 112.847502 0.017466 0.014233
C 114.181971 0.032762 0.024967
C 115.402698 0.047668 0.037196
C 125.215733 -0.002713 0.141041
C 126.436397 0.007948 0.138425
C 127.771336 0.020015 0.132306
C 128.996132 0.028893 0.120691
C 130.331186 0.035503 0.100473
C 131.551445 0.040367 0.078959
C 53.172957 -3.402040 0.421957
C 52.200864 -2.475384 0.312589
C 52.880295 -1.201500 0.165721
C 52.203223 0.026976 0.024901
C 52.853186 1.265616 -0.112515
C 52.258372 2.546068 -0.256656
C 53.271085 3.456995 -0.359189
C 54.503640 2.751062 -0.279461
N 54.198875 1.432511 -0.130670
C 55.773252 3.309113 -0.344204
C 56.998487 2.666396 -0.274600
C 58.259076 3.384300 -0.360332
C 59.231034 2.456675 -0.258890
C 58.551429 1.182845 -0.111795
N 57.217585 1.337331 -0.124870
C 59.228861 -0.045989 0.026426
C 58.579182 -1.283839 0.172475
C 59.173838 -2.563934 0.320557
C 58.161001 -3.473898 0.429627
C 56.928422 -2.767827 0.349743
N 57.233542 -1.449896 0.195359
C 55.658984 -3.325592 0.415724
C 54.433461 -2.683518 0.340447
N 54.214398 -1.355155 0.186616
H 53.082561 -4.464169 0.544984
H 51.135785 -2.603294 0.325575
H 51.202169 2.731546 -0.277884
H 53.182291 4.519189 -0.478990
H 54.853246 0.662622 -0.044100
H 55.807025 4.383390 -0.465837
H 58.349559 4.446689 -0.480931
H 60.296102 2.583964 -0.277013
H 60.230004 -2.749898 0.339676
H 58.249624 -4.535632 0.553606
H 56.579807 -0.679631 0.107263
H 55.625197 -4.399443 0.541100
C 69.318192 -3.376444 0.397457
C 68.347234 -2.449313 0.282599
C 69.028190 -1.176949 0.129115
C 68.351985 0.051221 -0.021043
C 69.002473 1.287993 -0.172421
C 68.407985 2.566913 -0.330552
C 69.420917 3.476729 -0.440737
C 70.653286 2.771509 -0.352173
N 70.348123 1.454415 -0.191188
C 71.923226 3.328663 -0.417348
C 73.147912 2.686290 -0.335165
C 74.409230 3.403151 -0.418716
C 75.380223 2.476220 -0.302638
C 74.699306 1.203784 -0.149466
N 73.365583 1.358505 -0.172516
C 75.375489 -0.024200 0.001953
C 74.724863 -1.261193 0.151536
C 75.319337 -2.540178 0.309556
C 74.306428 -3.450125 0.418605
C 73.074072 -2.744995 0.329257
N 73.379249 -1.427797 0.168769
C 71.804230 -3.302240 0.394367
C 70.579492 -2.659798 0.312775
N 70.361934 -1.332026 0.150081
H 69.226501 -4.437720 0.526605
H 67.282025 -2.576075 0.295871
H 67.351803 2.752274 -0.354849
H 69.332291 4.537686 -0.571140
H 71.002838 0.685939 -0.095680
H 71.957845 4.401759 -0.548740
H 74.500845 4.464456 -0.547730
H 76.445444 2.603108 -0.314626
H 76.375499 -2.725456 0.334757
H 74.394977 -4.511113 0.548816
H 72.724545 -0.659333 0.073094
H 71.769651 -4.375349 0.525654
C 85.465812 -3.381836 0.411000
C 84.494541 -2.454149 0.303297
C 85.175130 -1.181631 0.149913
C 84.499081 0.047101 0.004048
C 85.150825 1.283515 -0.145570
C 84.558319 2.564021 -0.298121
C 85.572744 3.471944 -0.410074
C 86.804053 2.763994 -0.328069
N 86.496753 1.447216 -0.168588
C 88.074438 3.319475 -0.398198
C 89.299174 2.676475 -0.321451
C 90.560317 3.393106 -0.409547
C 91.531623 2.466230 -0.295372
C 90.851071 1.194010 -0.139451
N 89.517243 1.348795 -0.158910
C 91.527139 -0.034227 0.010508
C 90.875406 -1.271066 0.156604
C 91.467908 -2.551822 0.307053
C 90.453462 -3.460450 0.412974
C 89.222133 -2.752653 0.329777
N 89.529462 -1.435304 0.175183
C 87.951738 -3.308606 0.396335
C 86.726983 -2.665257 0.322659
N 86.508946 -1.336950 0.165352
H 85.374459 -4.443451 0.537627
H 83.429345 -2.580589 0.321308
H 83.502458 2.751673 -0.317794
H 85.485893 4.533416 -0.537446
H 87.149158 0.676071 -0.077816
H 88.109457 4.392677 -0.528804
H 90.651637 4.454241 -0.540147
H 92.596820 2.593010 -0.311018
H 92.523773 -2.739189 0.329274
H 90.540296 -4.522305 0.537122
H 88.877178 -0.664077 0.084206
H 87.916747 -4.382300 0.522820
C 101.617317 -3.383641 0.408825
C 100.646277 -2.455611 0.302418
C 101.327109 -1.183509 0.145970
C 100.650602 0.045009 0.000536
C 101.300726 1.281757 -0.153131
C 100.705811 2.561097 -0.306539
C 101.718360 3.470409 -0.423904
C 102.950951 2.764579 -0.344058
N 102.646264 1.447627 -0.180612
C 104.220634 3.320943 -0.419175
C 105.445484 2.677893 -0.344174
C 106.706719 3.393817 -0.436018
C 107.677772 2.466704 -0.321812
C 106.996906 1.195023 -0.162377
N 105.663156 1.350373 -0.179519
C 107.673374 -0.032726 -0.010643
C 107.023307 -1.269933 0.139603
C 107.618288 -2.549195 0.293157
C 106.605728 -3.459478 0.402964
C 105.373109 -2.754153 0.319330
N 105.677736 -1.436664 0.160519
C 104.103335 -3.311125 0.389062
C 102.878566 -2.667722 0.316612
N 102.660817 -1.339365 0.158617
H 101.525796 -4.445107 0.536583
H 99.581051 -2.581552 0.322861
H 99.649600 2.747017 -0.323427
H 101.629408 4.531419 -0.553612
H 103.301428 0.678938 -0.090151
H 104.254985 4.393856 -0.552078
H 106.798286 4.454674 -0.568721
H 108.742990 2.592950 -0.339593
H 108.674526 -2.734474 0.314714
H 106.694762 -4.520779 0.530226
H 105.022495 -0.668223 0.068538
H 104.068938 -4.384538 0.517873
C 117.764557 -3.366205 0.503661
C 116.793075 -2.441773 0.372765
C 117.473212 -1.169250 0.216968
C 116.796446 0.056571 0.051409
C 117.446687 1.293537 -0.099537
C 116.852571 2.571073 -0.270080
C 117.865723 3.481192 -0.374918
C 119.097933 2.777689 -0.270432
N 118.792302 1.461179 -0.105327
C 120.367538 3.336139 -0.327580
C 121.592720 2.696130 -0.232172
C 122.853498 3.414348 -0.311840
C 123.825119 2.489560 -0.184061
C 123.145130 1.217117 -0.027631
N 121.811153 1.369914 -0.059709
C 123.821595 -0.009061 0.134963
C 123.171039 -1.245380 0.289470
C 123.765292 -2.522759 0.460562
C 122.752241 -3.432681 0.568460
C 121.520026 -2.729156 0.465302
N 121.825329 -1.412880 0.298523
C 120.250269 -3.287605 0.523285
C 119.025387 -2.647773 0.426279
N 118.806911 -1.321495 0.252739
H 117.673610 -4.426771 0.639124
H 115.728002 -2.570433 0.376393
H 115.796535 2.755335 -0.305969
H 117.777563 4.541374 -0.511821
H 119.445644 0.692844 0.000722
H 120.401701 4.408528 -0.464820
H 122.944399 4.474961 -0.447007
H 124.890217 2.617916 -0.190287
H 124.821387 -2.707033 0.494663
H 122.840588 -4.492710 0.706401
H 121.171337 -0.645079 0.192742
H 120.216080 -4.359892 0.661254
