119

Ni 11.937671 -0.004370 -0.011813
C 14.434261 -3.416174 0.094870
C 15.386179 -2.455844 0.099500
C 14.697804 -1.201441 0.043919
C 15.364531 0.027007 0.001381
C 14.675860 1.243101 -0.043307
C 15.341660 2.510015 -0.088995
C 14.372427 3.452891 -0.085631
C 13.122635 2.754911 -0.039491
N 13.323542 1.400265 -0.022869
C 11.902692 3.397609 0.003922
C 10.696011 2.729926 0.038523
C 9.428602 3.400764 0.084172
C 8.482063 2.437522 0.071727
C 9.175328 1.182161 0.019362
N 10.527181 1.374740 0.008681
C 8.528283 -0.035545 -0.034592
C 9.198055 -1.241342 -0.077412
C 8.528567 -2.509310 -0.135127
C 9.492534 -3.455185 -0.129419
C 10.746740 -2.761157 -0.068648
N 10.552888 -1.409187 -0.046714
C 11.964905 -3.406442 -0.016180
C 13.172381 -2.741303 0.036258
N 13.348757 -1.383290 0.014875
H 14.552618 -4.481787 0.126087
H 16.453051 -2.561223 0.135117
H 16.406686 2.634831 -0.116910
H 14.471564 4.520648 -0.110641
H 11.893113 4.476833 0.009331
H 9.307786 4.466235 0.118620
H 7.414311 2.539479 0.093951
H 7.449219 -0.045344 -0.042502
H 7.463283 -2.630829 -0.172391
H 9.391630 -4.522808 -0.161140
H 11.975158 -4.485672 -0.016472
Ni 43.913278 0.025787 -0.008146
C 41.425899 3.374801 0.688280
C 40.471102 2.432550 0.518326
C 41.156108 1.204308 0.248731
C 40.486084 0.003087 -0.003043
C 41.171292 -1.190026 -0.251868
C 40.501618 -2.428844 -0.511391
C 41.468120 -3.360097 -0.675727
C 42.720109 -2.683037 -0.516345
N 42.523229 -1.351452 -0.263801
C 43.938418 -3.325282 -0.596417
C 45.147298 -2.676285 -0.453535
C 46.412934 -3.346624 -0.538658
C 47.362255 -2.398862 -0.382386
C 46.672436 -1.153617 -0.201245
N 45.319981 -1.338284 -0.239411
C 47.322937 0.051539 -0.031573
C 46.656709 1.246176 0.150928
C 47.330129 2.500771 0.329223
C 46.368991 3.432609 0.507545
C 45.112551 2.743626 0.436247
N 45.302322 1.409854 0.210612
C 43.895994 3.373757 0.597277
C 42.686149 2.715280 0.520791
N 42.505885 1.383004 0.259522
H 41.310539 4.418983 0.904952
H 39.404316 2.534511 0.565114
H 39.436138 -2.544712 -0.555522
H 41.365787 -4.407189 -0.884553
H 43.944801 -4.388404 -0.782355
H 46.530737 -4.400906 -0.698716
H 48.429808 -2.505149 -0.385794
H 48.402009 0.059867 -0.040125
H 48.395862 2.623453 0.316887
H 46.473144 4.487449 0.673334
H 43.888956 4.435439 0.791253
C 16.761011 0.038976 0.004620
C 17.980463 0.045782 0.005873
C 19.316865 0.050091 0.008440
C 20.540813 0.054820 0.009505
C 21.877079 0.052462 0.009400
C 23.096713 0.051181 0.005815
C 32.753671 -0.007804 -0.007241
C 33.973244 -0.011098 -0.007464
C 35.309595 -0.011954 -0.003861
C 36.533519 -0.010118 -0.007420
C 37.870019 -0.009195 -0.003524
C 39.089453 -0.005864 -0.003340
Ni 27.925131 0.020734 -0.010143
C 25.435123 -3.371031 0.435134
C 24.479680 -2.419146 0.335908
C 25.164163 -1.173679 0.162006
C 24.492557 0.042690 0.001969
C 25.178575 1.250065 -0.164173
C 24.508748 2.503841 -0.335463
C 25.475502 3.442876 -0.446676
C 26.726865 2.755094 -0.341978
N 26.530091 1.410020 -0.174446
C 27.945445 3.398965 -0.390627
C 29.156181 2.746381 -0.289627
C 30.415600 3.426043 -0.332458
C 31.370996 2.475225 -0.223235
C 30.686296 1.222396 -0.115623
N 29.336821 1.395764 -0.151114
C 31.357716 0.000075 -0.010079
C 30.671558 -1.214334 0.091583
C 31.341177 -2.475793 0.193324
C 30.374404 -3.415744 0.296412
C 29.123249 -2.720779 0.256798
N 29.320077 -1.371777 0.124708
C 27.904884 -3.358749 0.359143
C 26.694327 -2.699182 0.321566
N 26.513561 -1.351076 0.160357
H 25.320671 -4.428784 0.571336
H 23.412920 -2.524978 0.372612
H 23.443134 2.623326 -0.362558
H 25.373598 4.501623 -0.585011
H 27.951926 4.471364 -0.512611
H 30.530160 4.487743 -0.433426
H 32.437868 2.585937 -0.215356
H 32.406678 -2.599108 0.186015
H 30.476205 -4.479187 0.392138
H 27.898451 -4.431721 0.475970
