318

C 59.886927 3.512302 0.789799
C 60.776905 2.572043 0.591603
C 60.115404 1.311968 0.290796
C 60.473842 0.006306 0.002115
C 59.648664 -1.124766 -0.083101
C 60.104229 -2.333491 0.498206
C 59.131535 -3.266037 0.298051
C 58.100441 -2.598336 -0.404937
N 58.437166 -1.317476 -0.621851
C 56.942480 -3.324452 -0.736654
C 55.624379 -2.881756 -0.623119
C 54.312033 -3.483890 -0.720098
C 53.390405 -2.537242 -0.514013
C 54.087291 -1.291412 -0.277282
N 55.408364 -1.571164 -0.356968
C 53.688049 0.010585 -0.009279
C 54.520661 1.147262 0.066629
C 54.086518 2.349251 -0.543511
C 55.082031 3.265640 -0.351555
C 56.096182 2.592396 0.372376
N 55.730985 1.324574 0.611200
C 57.265824 3.299353 0.693876
C 58.581077 2.895828 0.623860
N 58.770699 1.584724 0.327458
H 60.054192 4.540846 1.028388
H 61.847164 2.695380 0.640622
H 61.064750 -2.519193 1.016782
H 59.168417 -4.322647 0.623378
H 57.833881 -0.550066 -1.169370
H 57.030871 -4.359879 -1.115000
H 54.113358 -4.544591 -0.928843
H 52.320996 -2.729176 -0.533247
H 52.613106 0.099855 0.128466
H 53.132864 2.540809 -1.072309
H 55.067610 4.315868 -0.697997
H 56.324310 0.567131 1.183196
H 57.197316 4.356758 1.050591
C 145.484749 -3.491321 0.826169
C 144.594771 -2.553171 0.618219
C 145.256272 -1.296288 0.304341
C 144.897834 0.006306 0.002115
C 145.723013 1.136431 -0.094844
C 145.267447 2.351128 0.473878
C 146.240142 3.281545 0.264049
C 147.271235 2.606579 -0.431966
N 146.934510 1.323536 -0.635566
C 148.429196 3.329210 -0.771207
C 149.747297 2.887717 -0.653080
C 151.059643 3.488812 -0.756308
C 151.981271 2.544356 -0.540402
C 151.284385 1.301051 -0.290745
N 149.963312 1.579960 -0.373332
C 151.683627 0.001908 -0.009234
C 150.851015 -1.133919 0.078476
C 151.285158 -2.342180 -0.519148
C 150.289645 -3.256526 -0.317685
C 149.275494 -2.575800 0.399215
N 149.640691 -1.305566 0.624858
C 148.105853 -3.279380 0.728039
C 146.790599 -2.876604 0.653836
N 146.600977 -1.568649 0.343833
H 145.317484 -4.517331 1.075428
H 143.524512 -2.675992 0.668516
H 144.306926 2.542206 0.990498
H 146.203260 4.341477 0.578385
H 147.537795 0.550480 -1.175085
H 148.340805 4.360652 -1.160287
H 151.258319 4.547288 -0.976058
H 153.050681 2.736079 -0.561628
H 152.758570 -0.085927 0.129430
H 152.238813 -2.539220 -1.045928
H 150.304067 -4.310296 -0.653200
H 149.047366 -0.542223 1.188957
H 148.174361 -4.333023 1.095718
C 62.875455 0.004083 0.000901
C 64.083432 0.011538 0.002596
C 65.502200 0.012235 0.007733
C 66.717717 0.004083 0.000901
C 75.505564 0.004083 0.000901
C 76.713541 0.011538 0.002596
C 78.132309 0.012235 0.007733
C 79.347825 0.004083 0.000901
C 88.135673 0.004083 0.000901
C 89.343649 0.011538 0.002596
C 90.762417 0.012235 0.007733
C 91.977934 0.004083 0.000901
C 100.765781 0.004083 0.000901
C 101.973758 0.011538 0.002596
C 103.392526 0.012235 0.007733
C 104.608042 0.004083 0.000901
C 113.395890 0.004083 0.000901
C 114.603866 0.011538 0.002596
C 116.022634 0.012235 0.007733
C 117.238151 0.004083 0.000901
C 126.025998 0.004083 0.000901
C 127.233975 0.011538 0.002596
C 128.652743 0.012235 0.007733
C 129.868259 0.004083 0.000901
C 138.656107 0.004083 0.000901
C 139.864083 0.011538 0.002596
C 141.282851 0.012235 0.007733
C 142.498368 0.004083 0.000901
C 68.317419 -3.591963 0.001050
C 67.442869 -2.597058 -0.009252
C 68.114333 -1.318275 0.003937
C 67.717302 -0.002690 -0.000841
C 68.528494 1.141634 -0.154968
C 68.049468 2.194150 -0.967033
C 69.036553 3.136903 -0.958502
C 70.083825 2.635108 -0.145699
N 69.744972 1.428741 0.327047
C 71.244202 3.413091 0.008651
C 72.565191 2.955218 -0.020742
C 73.877761 3.583351 -0.081870
C 74.791873 2.628287 -0.084453
C 74.118327 1.341413 -0.025264
N 72.806268 1.630012 0.009526
C 74.520610 -0.002690 -0.000841
C 73.688456 -1.116479 0.181440
C 74.128414 -2.148136 1.044751
C 73.130232 -3.071476 1.049372
C 72.107316 -2.591538 0.195942
N 72.474494 -1.410291 -0.314566
C 70.950407 -3.366946 0.038874
C 69.629632 -2.947468 0.022188
N 69.453241 -1.609264 0.023089
H 68.148899 -4.654130 -0.004353
H 66.355041 -2.783094 -0.026279
H 67.085390 2.269522 -1.501349
H 68.998407 4.108018 -1.490945
H 70.352650 0.791641 1.015676
H 71.189102 4.499353 0.152766
H 74.096188 4.651343 -0.120200
H 75.868188 2.774331 -0.124081
H 75.082424 -2.212548 1.602299
H 73.155651 -4.016794 1.624691
H 71.887417 -0.790835 -1.038216
H 71.011125 -4.478686 -0.075255
C 80.947527 -3.591963 0.001050
C 80.072977 -2.597058 -0.009252
C 80.744441 -1.318275 0.003937
C 80.347410 -0.002690 -0.000841
C 81.158602 1.141634 -0.154968
C 80.679577 2.194150 -0.967033
C 81.666662 3.136903 -0.958502
C 82.713933 2.635108 -0.145699
N 82.375080 1.428741 0.327047
C 83.874311 3.413091 0.008651
C 85.195300 2.955218 -0.020742
C 86.507869 3.583351 -0.081870
C 87.421982 2.628287 -0.084453
C 86.748435 1.341413 -0.025264
N 85.436377 1.630012 0.009526
C 87.150719 -0.002690 -0.000841
C 86.318565 -1.116479 0.181440
C 86.758523 -2.148136 1.044751
C 85.760341 -3.071476 1.049372
C 84.737425 -2.591538 0.195942
N 85.104602 -1.410291 -0.314566
C 83.580516 -3.366946 0.038874
C 82.259741 -2.947468 0.022188
N 82.083350 -1.609264 0.023089
H 80.779008 -4.654130 -0.004353
H 78.985149 -2.783094 -0.026279
H 79.715499 2.269522 -1.501349
H 81.628515 4.108018 -1.490945
H 82.982759 0.791641 1.015676
H 83.819211 4.499353 0.152766
H 86.726296 4.651343 -0.120200
H 88.498297 2.774331 -0.124081
H 87.712532 -2.212548 1.602299
H 85.785759 -4.016794 1.624691
H 84.517526 -0.790835 -1.038216
H 83.641234 -4.478686 -0.075255
C 93.577636 -3.591963 0.001050
C 92.703086 -2.597058 -0.009252
C 93.374550 -1.318275 0.003937
C 92.977519 -0.002690 -0.000841
C 93.788711 1.141634 -0.154968
C 93.309685 2.194150 -0.967033
C 94.296770 3.136903 -0.958502
C 95.344042 2.635108 -0.145699
N 95.005189 1.428741 0.327047
C 96.504419 3.413091 0.008651
C 97.825408 2.955218 -0.020742
C 99.137978 3.583351 -0.081870
C 100.052090 2.628287 -0.084453
C 99.378544 1.341413 -0.025264
N 98.066485 1.630012 0.009526
C 99.780827 -0.002690 -0.000841
C 98.948673 -1.116479 0.181440
C 99.388631 -2.148136 1.044751
C 98.390449 -3.071476 1.049372
C 97.367534 -2.591538 0.195942
N 97.734711 -1.410291 -0.314566
C 96.210624 -3.366946 0.038874
C 94.889849 -2.947468 0.022188
N 94.713458 -1.609264 0.023089
H 93.409116 -4.654130 -0.004353
H 91.615258 -2.783094 -0.026279
H 92.345608 2.269522 -1.501349
H 94.258624 4.108018 -1.490945
H 95.612867 0.791641 1.015676
H 96.449319 4.499353 0.152766
H 99.356405 4.651343 -0.120200
H 101.128405 2.774331 -0.124081
H 100.342641 -2.212548 1.602299
H 98.415868 -4.016794 1.624691
H 97.147634 -0.790835 -1.038216
H 96.271342 -4.478686 -0.075255
C 106.207744 -3.591963 0.001050
C 105.333194 -2.597058 -0.009252
C 106.004658 -1.318275 0.003937
C 105.607627 -0.002690 -0.000841
C 106.418819 1.141634 -0.154968
C 105.939794 2.194150 -0.967033
C 106.926879 3.136903 -0.958502
C 107.974150 2.635108 -0.145699
N 107.635297 1.428741 0.327047
C 109.134528 3.413091 0.008651
C 110.455517 2.955218 -0.020742
C 111.768086 3.583351 -0.081870
C 112.682199 2.628287 -0.084453
C 112.008652 1.341413 -0.025264
N 110.696594 1.630012 0.009526
C 112.410936 -0.002690 -0.000841
C 111.578782 -1.116479 0.181440
C 112.018740 -2.148136 1.044751
C 111.020558 -3.071476 1.049372
C 109.997642 -2.591538 0.195942
N 110.364819 -1.410291 -0.314566
C 108.840733 -3.366946 0.038874
C 107.519958 -2.947468 0.022188
N 107.343567 -1.609264 0.023089
H 106.039225 -4.654130 -0.004353
H 104.245366 -2.783094 -0.026279
H 104.975716 2.269522 -1.501349
H 106.888732 4.108018 -1.490945
H 108.242976 0.791641 1.015676
H 109.079428 4.499353 0.152766
H 111.986513 4.651343 -0.120200
H 113.758514 2.774331 -0.124081
H 112.972749 -2.212548 1.602299
H 111.045976 -4.016794 1.624691
H 109.777743 -0.790835 -1.038216
H 108.901451 -4.478686 -0.075255
C 118.837853 -3.591963 0.001050
C 117.963303 -2.597058 -0.009252
C 118.634767 -1.318275 0.003937
C 118.237736 -0.002690 -0.000841
C 119.048928 1.141634 -0.154968
C 118.569902 2.194150 -0.967033
C 119.556987 3.136903 -0.958502
C 120.604259 2.635108 -0.145699
N 120.265406 1.428741 0.327047
C 121.764636 3.413091 0.008651
C 123.085625 2.955218 -0.020742
C 124.398195 3.583351 -0.081870
C 125.312307 2.628287 -0.084453
C 124.638761 1.341413 -0.025264
N 123.326702 1.630012 0.009526
C 125.041044 -0.002690 -0.000841
C 124.208890 -1.116479 0.181440
C 124.648848 -2.148136 1.044751
C 123.650666 -3.071476 1.049372
C 122.627751 -2.591538 0.195942
N 122.994928 -1.410291 -0.314566
C 121.470841 -3.366946 0.038874
C 120.150066 -2.947468 0.022188
N 119.973675 -1.609264 0.023089
H 118.669334 -4.654130 -0.004353
H 116.875475 -2.783094 -0.026279
H 117.605825 2.269522 -1.501349
H 119.518841 4.108018 -1.490945
H 120.873084 0.791641 1.015676
H 121.709536 4.499353 0.152766
H 124.616622 4.651343 -0.120200
H 126.388622 2.774331 -0.124081
H 125.602858 -2.212548 1.602299
H 123.676085 -4.016794 1.624691
H 122.407852 -0.790835 -1.038216
H 121.531559 -4.478686 -0.075255
C 131.467961 -3.591963 0.001050
C 130.593411 -2.597058 -0.009252
C 131.264875 -1.318275 0.003937
C 130.867844 -0.002690 -0.000841
C 131.679037 1.141634 -0.154968
C 131.200011 2.194150 -0.967033
C 132.187096 3.136903 -0.958502
C 133.234367 2.635108 -0.145699
N 132.895514 1.428741 0.327047
C 134.394745 3.413091 0.008651
C 135.715734 2.955218 -0.020742
C 137.028303 3.583351 -0.081870
C 137.942416 2.628287 -0.084453
C 137.268869 1.341413 -0.025264
N 135.956811 1.630012 0.009526
C 137.671153 -0.002690 -0.000841
C 136.838999 -1.116479 0.181440
C 137.278957 -2.148136 1.044751
C 136.280775 -3.071476 1.049372
C 135.257859 -2.591538 0.195942
N 135.625036 -1.410291 -0.314566
C 134.100950 -3.366946 0.038874
C 132.780175 -2.947468 0.022188
N 132.603784 -1.609264 0.023089
H 131.299442 -4.654130 -0.004353
H 129.505583 -2.783094 -0.026279
H 130.235933 2.269522 -1.501349
H 132.148949 4.108018 -1.490945
H 133.503193 0.791641 1.015676
H 134.339645 4.499353 0.152766
H 137.246730 4.651343 -0.120200
H 139.018731 2.774331 -0.124081
H 138.232967 -2.212548 1.602299
H 136.306193 -4.016794 1.624691
H 135.037960 -0.790835 -1.038216
H 134.161668 -4.478686 -0.075255
