
  xtb     11192111493D
 xtb: 6.4.1 (bd6e46d)
119142  0     0  0            999 V2000
   11.9377   -0.0044   -0.0118 Ni  0  0  0  0  0  0  0  0  0  0  0  0
   14.4343   -3.4162    0.0949 C   0  0  0  0  0  0  0  0  0  0  0  0
   15.3862   -2.4558    0.0995 C   0  0  0  0  0  0  0  0  0  0  0  0
   14.6978   -1.2014    0.0439 C   0  0  0  0  0  0  0  0  0  0  0  0
   15.3645    0.0270    0.0014 C   0  0  0  0  0  0  0  0  0  0  0  0
   14.6759    1.2431   -0.0433 C   0  0  0  0  0  0  0  0  0  0  0  0
   15.3417    2.5100   -0.0890 C   0  0  0  0  0  0  0  0  0  0  0  0
   14.3724    3.4529   -0.0856 C   0  0  0  0  0  0  0  0  0  0  0  0
   13.1226    2.7549   -0.0395 C   0  0  0  0  0  0  0  0  0  0  0  0
   13.3235    1.4003   -0.0229 N   0  0  0  0  0  0  0  0  0  0  0  0
   11.9027    3.3976    0.0039 C   0  0  0  0  0  0  0  0  0  0  0  0
   10.6960    2.7299    0.0385 C   0  0  0  0  0  0  0  0  0  0  0  0
    9.4286    3.4008    0.0842 C   0  0  0  0  0  0  0  0  0  0  0  0
    8.4821    2.4375    0.0717 C   0  0  0  0  0  0  0  0  0  0  0  0
    9.1753    1.1822    0.0194 C   0  0  0  0  0  0  0  0  0  0  0  0
   10.5272    1.3747    0.0087 N   0  0  0  0  0  0  0  0  0  0  0  0
    8.5283   -0.0355   -0.0346 C   0  0  0  0  0  0  0  0  0  0  0  0
    9.1981   -1.2413   -0.0774 C   0  0  0  0  0  0  0  0  0  0  0  0
    8.5286   -2.5093   -0.1351 C   0  0  0  0  0  0  0  0  0  0  0  0
    9.4925   -3.4552   -0.1294 C   0  0  0  0  0  0  0  0  0  0  0  0
   10.7467   -2.7612   -0.0686 C   0  0  0  0  0  0  0  0  0  0  0  0
   10.5529   -1.4092   -0.0467 N   0  0  0  0  0  0  0  0  0  0  0  0
   11.9649   -3.4064   -0.0162 C   0  0  0  0  0  0  0  0  0  0  0  0
   13.1724   -2.7413    0.0363 C   0  0  0  0  0  0  0  0  0  0  0  0
   13.3488   -1.3833    0.0149 N   0  0  0  0  0  0  0  0  0  0  0  0
   14.5526   -4.4818    0.1261 H   0  0  0  0  0  0  0  0  0  0  0  0
   16.4531   -2.5612    0.1351 H   0  0  0  0  0  0  0  0  0  0  0  0
   16.4067    2.6348   -0.1169 H   0  0  0  0  0  0  0  0  0  0  0  0
   14.4716    4.5206   -0.1106 H   0  0  0  0  0  0  0  0  0  0  0  0
   11.8931    4.4768    0.0093 H   0  0  0  0  0  0  0  0  0  0  0  0
    9.3078    4.4662    0.1186 H   0  0  0  0  0  0  0  0  0  0  0  0
    7.4143    2.5395    0.0940 H   0  0  0  0  0  0  0  0  0  0  0  0
    7.4492   -0.0453   -0.0425 H   0  0  0  0  0  0  0  0  0  0  0  0
    7.4633   -2.6308   -0.1724 H   0  0  0  0  0  0  0  0  0  0  0  0
    9.3916   -4.5228   -0.1611 H   0  0  0  0  0  0  0  0  0  0  0  0
   11.9752   -4.4857   -0.0165 H   0  0  0  0  0  0  0  0  0  0  0  0
   43.9133    0.0258   -0.0081 Ni  0  0  0  0  0  0  0  0  0  0  0  0
   41.4259    3.3748    0.6883 C   0  0  0  0  0  0  0  0  0  0  0  0
   40.4711    2.4326    0.5183 C   0  0  0  0  0  0  0  0  0  0  0  0
   41.1561    1.2043    0.2487 C   0  0  0  0  0  0  0  0  0  0  0  0
   40.4861    0.0031   -0.0030 C   0  0  0  0  0  0  0  0  0  0  0  0
   41.1713   -1.1900   -0.2519 C   0  0  0  0  0  0  0  0  0  0  0  0
   40.5016   -2.4288   -0.5114 C   0  0  0  0  0  0  0  0  0  0  0  0
   41.4681   -3.3601   -0.6757 C   0  0  0  0  0  0  0  0  0  0  0  0
   42.7201   -2.6830   -0.5163 C   0  0  0  0  0  0  0  0  0  0  0  0
   42.5232   -1.3515   -0.2638 N   0  0  0  0  0  0  0  0  0  0  0  0
   43.9384   -3.3253   -0.5964 C   0  0  0  0  0  0  0  0  0  0  0  0
   45.1473   -2.6763   -0.4535 C   0  0  0  0  0  0  0  0  0  0  0  0
   46.4129   -3.3466   -0.5387 C   0  0  0  0  0  0  0  0  0  0  0  0
   47.3623   -2.3989   -0.3824 C   0  0  0  0  0  0  0  0  0  0  0  0
   46.6724   -1.1536   -0.2012 C   0  0  0  0  0  0  0  0  0  0  0  0
   45.3200   -1.3383   -0.2394 N   0  0  0  0  0  0  0  0  0  0  0  0
   47.3229    0.0515   -0.0316 C   0  0  0  0  0  0  0  0  0  0  0  0
   46.6567    1.2462    0.1509 C   0  0  0  0  0  0  0  0  0  0  0  0
   47.3301    2.5008    0.3292 C   0  0  0  0  0  0  0  0  0  0  0  0
   46.3690    3.4326    0.5075 C   0  0  0  0  0  0  0  0  0  0  0  0
   45.1126    2.7436    0.4362 C   0  0  0  0  0  0  0  0  0  0  0  0
   45.3023    1.4099    0.2106 N   0  0  0  0  0  0  0  0  0  0  0  0
   43.8960    3.3738    0.5973 C   0  0  0  0  0  0  0  0  0  0  0  0
   42.6861    2.7153    0.5208 C   0  0  0  0  0  0  0  0  0  0  0  0
   42.5059    1.3830    0.2595 N   0  0  0  0  0  0  0  0  0  0  0  0
   41.3105    4.4190    0.9050 H   0  0  0  0  0  0  0  0  0  0  0  0
   39.4043    2.5345    0.5651 H   0  0  0  0  0  0  0  0  0  0  0  0
   39.4361   -2.5447   -0.5555 H   0  0  0  0  0  0  0  0  0  0  0  0
   41.3658   -4.4072   -0.8846 H   0  0  0  0  0  0  0  0  0  0  0  0
   43.9448   -4.3884   -0.7824 H   0  0  0  0  0  0  0  0  0  0  0  0
   46.5307   -4.4009   -0.6987 H   0  0  0  0  0  0  0  0  0  0  0  0
   48.4298   -2.5051   -0.3858 H   0  0  0  0  0  0  0  0  0  0  0  0
   48.4020    0.0599   -0.0401 H   0  0  0  0  0  0  0  0  0  0  0  0
   48.3959    2.6235    0.3169 H   0  0  0  0  0  0  0  0  0  0  0  0
   46.4731    4.4874    0.6733 H   0  0  0  0  0  0  0  0  0  0  0  0
   43.8890    4.4354    0.7913 H   0  0  0  0  0  0  0  0  0  0  0  0
   16.7610    0.0390    0.0046 C   0  0  0  0  0  0  0  0  0  0  0  0
   17.9805    0.0458    0.0059 C   0  0  0  0  0  0  0  0  0  0  0  0
   19.3169    0.0501    0.0084 C   0  0  0  0  0  0  0  0  0  0  0  0
   20.5408    0.0548    0.0095 C   0  0  0  0  0  0  0  0  0  0  0  0
   21.8771    0.0525    0.0094 C   0  0  0  0  0  0  0  0  0  0  0  0
   23.0967    0.0512    0.0058 C   0  0  0  0  0  0  0  0  0  0  0  0
   32.7537   -0.0078   -0.0072 C   0  0  0  0  0  0  0  0  0  0  0  0
   33.9732   -0.0111   -0.0075 C   0  0  0  0  0  0  0  0  0  0  0  0
   35.3096   -0.0120   -0.0039 C   0  0  0  0  0  0  0  0  0  0  0  0
   36.5335   -0.0101   -0.0074 C   0  0  0  0  0  0  0  0  0  0  0  0
   37.8700   -0.0092   -0.0035 C   0  0  0  0  0  0  0  0  0  0  0  0
   39.0895   -0.0059   -0.0033 C   0  0  0  0  0  0  0  0  0  0  0  0
   27.9251    0.0207   -0.0101 Ni  0  0  0  0  0  0  0  0  0  0  0  0
   25.4351   -3.3710    0.4351 C   0  0  0  0  0  0  0  0  0  0  0  0
   24.4797   -2.4191    0.3359 C   0  0  0  0  0  0  0  0  0  0  0  0
   25.1642   -1.1737    0.1620 C   0  0  0  0  0  0  0  0  0  0  0  0
   24.4926    0.0427    0.0020 C   0  0  0  0  0  0  0  0  0  0  0  0
   25.1786    1.2501   -0.1642 C   0  0  0  0  0  0  0  0  0  0  0  0
   24.5087    2.5038   -0.3355 C   0  0  0  0  0  0  0  0  0  0  0  0
   25.4755    3.4429   -0.4467 C   0  0  0  0  0  0  0  0  0  0  0  0
   26.7269    2.7551   -0.3420 C   0  0  0  0  0  0  0  0  0  0  0  0
   26.5301    1.4100   -0.1744 N   0  0  0  0  0  0  0  0  0  0  0  0
   27.9454    3.3990   -0.3906 C   0  0  0  0  0  0  0  0  0  0  0  0
   29.1562    2.7464   -0.2896 C   0  0  0  0  0  0  0  0  0  0  0  0
   30.4156    3.4260   -0.3325 C   0  0  0  0  0  0  0  0  0  0  0  0
   31.3710    2.4752   -0.2232 C   0  0  0  0  0  0  0  0  0  0  0  0
   30.6863    1.2224   -0.1156 C   0  0  0  0  0  0  0  0  0  0  0  0
   29.3368    1.3958   -0.1511 N   0  0  0  0  0  0  0  0  0  0  0  0
   31.3577    0.0001   -0.0101 C   0  0  0  0  0  0  0  0  0  0  0  0
   30.6716   -1.2143    0.0916 C   0  0  0  0  0  0  0  0  0  0  0  0
   31.3412   -2.4758    0.1933 C   0  0  0  0  0  0  0  0  0  0  0  0
   30.3744   -3.4157    0.2964 C   0  0  0  0  0  0  0  0  0  0  0  0
   29.1232   -2.7208    0.2568 C   0  0  0  0  0  0  0  0  0  0  0  0
   29.3201   -1.3718    0.1247 N   0  0  0  0  0  0  0  0  0  0  0  0
   27.9049   -3.3587    0.3591 C   0  0  0  0  0  0  0  0  0  0  0  0
   26.6943   -2.6992    0.3216 C   0  0  0  0  0  0  0  0  0  0  0  0
   26.5136   -1.3511    0.1604 N   0  0  0  0  0  0  0  0  0  0  0  0
   25.3207   -4.4288    0.5713 H   0  0  0  0  0  0  0  0  0  0  0  0
   23.4129   -2.5250    0.3726 H   0  0  0  0  0  0  0  0  0  0  0  0
   23.4431    2.6233   -0.3626 H   0  0  0  0  0  0  0  0  0  0  0  0
   25.3736    4.5016   -0.5850 H   0  0  0  0  0  0  0  0  0  0  0  0
   27.9519    4.4714   -0.5126 H   0  0  0  0  0  0  0  0  0  0  0  0
   30.5302    4.4877   -0.4334 H   0  0  0  0  0  0  0  0  0  0  0  0
   32.4379    2.5859   -0.2154 H   0  0  0  0  0  0  0  0  0  0  0  0
   32.4067   -2.5991    0.1860 H   0  0  0  0  0  0  0  0  0  0  0  0
   30.4762   -4.4792    0.3921 H   0  0  0  0  0  0  0  0  0  0  0  0
   27.8985   -4.4317    0.4760 H   0  0  0  0  0  0  0  0  0  0  0  0
  2  3  2  0  0  0  0
  3  4  1  0  0  0  0
  4  5  4  0  0  0  0
  5  6  4  0  0  0  0
  6  7  1  0  0  0  0
  7  8  2  0  0  0  0
  8  9  1  0  0  0  0
  1 10  1  0  0  0  0
  6 10  4  0  0  0  0
  9 10  4  0  0  0  0
  9 11  4  0  0  0  0
 11 12  4  0  0  0  0
 12 13  1  0  0  0  0
 13 14  2  0  0  0  0
 14 15  1  0  0  0  0
  1 16  1  0  0  0  0
 12 16  4  0  0  0  0
 15 16  4  0  0  0  0
 15 17  4  0  0  0  0
 17 18  4  0  0  0  0
 18 19  1  0  0  0  0
 19 20  2  0  0  0  0
 20 21  1  0  0  0  0
  1 22  1  0  0  0  0
 18 22  4  0  0  0  0
 21 22  4  0  0  0  0
 21 23  4  0  0  0  0
  2 24  1  0  0  0  0
 23 24  4  0  0  0  0
  1 25  1  0  0  0  0
  4 25  4  0  0  0  0
 24 25  4  0  0  0  0
  2 26  1  0  0  0  0
  3 27  1  0  0  0  0
  7 28  1  0  0  0  0
  8 29  1  0  0  0  0
 11 30  1  0  0  0  0
 13 31  1  0  0  0  0
 14 32  1  0  0  0  0
 17 33  1  0  0  0  0
 19 34  1  0  0  0  0
 20 35  1  0  0  0  0
 23 36  1  0  0  0  0
 38 39  2  0  0  0  0
 39 40  1  0  0  0  0
 40 41  4  0  0  0  0
 41 42  4  0  0  0  0
 42 43  1  0  0  0  0
 43 44  2  0  0  0  0
 44 45  1  0  0  0  0
 37 46  1  0  0  0  0
 42 46  4  0  0  0  0
 45 46  4  0  0  0  0
 45 47  4  0  0  0  0
 47 48  4  0  0  0  0
 48 49  1  0  0  0  0
 49 50  2  0  0  0  0
 50 51  1  0  0  0  0
 37 52  1  0  0  0  0
 48 52  4  0  0  0  0
 51 52  4  0  0  0  0
 51 53  4  0  0  0  0
 53 54  4  0  0  0  0
 54 55  1  0  0  0  0
 55 56  2  0  0  0  0
 56 57  1  0  0  0  0
 37 58  1  0  0  0  0
 54 58  4  0  0  0  0
 57 58  4  0  0  0  0
 57 59  4  0  0  0  0
 38 60  1  0  0  0  0
 59 60  4  0  0  0  0
 37 61  1  0  0  0  0
 40 61  4  0  0  0  0
 60 61  4  0  0  0  0
 38 62  1  0  0  0  0
 39 63  1  0  0  0  0
 43 64  1  0  0  0  0
 44 65  1  0  0  0  0
 47 66  1  0  0  0  0
 49 67  1  0  0  0  0
 50 68  1  0  0  0  0
 53 69  1  0  0  0  0
 55 70  1  0  0  0  0
 56 71  1  0  0  0  0
 59 72  1  0  0  0  0
  5 73  1  0  0  0  0
 73 74  3  0  0  0  0
 74 75  4  0  0  0  0
 75 76  3  0  0  0  0
 76 77  4  0  0  0  0
 77 78  3  0  0  0  0
 79 80  3  0  0  0  0
 80 81  4  0  0  0  0
 81 82  3  0  0  0  0
 82 83  4  0  0  0  0
 41 84  1  0  0  0  0
 83 84  3  0  0  0  0
 86 87  2  0  0  0  0
 87 88  1  0  0  0  0
 78 89  1  0  0  0  0
 88 89  4  0  0  0  0
 89 90  4  0  0  0  0
 90 91  1  0  0  0  0
 91 92  2  0  0  0  0
 92 93  1  0  0  0  0
 85 94  1  0  0  0  0
 90 94  4  0  0  0  0
 93 94  4  0  0  0  0
 93 95  4  0  0  0  0
 95 96  4  0  0  0  0
 96 97  1  0  0  0  0
 97 98  2  0  0  0  0
 98 99  1  0  0  0  0
 85100  1  0  0  0  0
 96100  4  0  0  0  0
 99100  4  0  0  0  0
 79101  1  0  0  0  0
 99101  4  0  0  0  0
101102  4  0  0  0  0
102103  1  0  0  0  0
103104  2  0  0  0  0
104105  1  0  0  0  0
 85106  1  0  0  0  0
102106  4  0  0  0  0
105106  4  0  0  0  0
105107  4  0  0  0  0
 86108  1  0  0  0  0
107108  4  0  0  0  0
 85109  1  0  0  0  0
 88109  4  0  0  0  0
108109  4  0  0  0  0
 86110  1  0  0  0  0
 87111  1  0  0  0  0
 91112  1  0  0  0  0
 92113  1  0  0  0  0
 95114  1  0  0  0  0
 97115  1  0  0  0  0
 98116  1  0  0  0  0
103117  1  0  0  0  0
104118  1  0  0  0  0
107119  1  0  0  0  0
M  END
