
  xtb     11202115583D
 xtb: 6.4.1 (bd6e46d)
201240  0     0  0            999 V2000
   23.8937   -0.0027   -0.0078 Co  0  0  0  0  0  0  0  0  0  0  0  0
   26.3933   -3.4111    0.0531 C   0  0  0  0  0  0  0  0  0  0  0  0
   27.3446   -2.4502    0.0377 C   0  0  0  0  0  0  0  0  0  0  0  0
   26.6528   -1.1977    0.0140 C   0  0  0  0  0  0  0  0  0  0  0  0
   27.3161    0.0309   -0.0024 C   0  0  0  0  0  0  0  0  0  0  0  0
   26.6288    1.2464   -0.0039 C   0  0  0  0  0  0  0  0  0  0  0  0
   27.2958    2.5124    0.0013 C   0  0  0  0  0  0  0  0  0  0  0  0
   26.3258    3.4544    0.0186 C   0  0  0  0  0  0  0  0  0  0  0  0
   25.0780    2.7535    0.0192 C   0  0  0  0  0  0  0  0  0  0  0  0
   25.2746    1.3973    0.0047 N   0  0  0  0  0  0  0  0  0  0  0  0
   23.8576    3.3933    0.0271 C   0  0  0  0  0  0  0  0  0  0  0  0
   22.6520    2.7270    0.0056 C   0  0  0  0  0  0  0  0  0  0  0  0
   21.3858    3.3993   -0.0075 C   0  0  0  0  0  0  0  0  0  0  0  0
   20.4404    2.4358   -0.0465 C   0  0  0  0  0  0  0  0  0  0  0  0
   21.1363    1.1820   -0.0522 C   0  0  0  0  0  0  0  0  0  0  0  0
   22.4897    1.3697   -0.0198 N   0  0  0  0  0  0  0  0  0  0  0  0
   20.4923   -0.0362   -0.0803 C   0  0  0  0  0  0  0  0  0  0  0  0
   21.1606   -1.2415   -0.0645 C   0  0  0  0  0  0  0  0  0  0  0  0
   20.4897   -2.5089   -0.0730 C   0  0  0  0  0  0  0  0  0  0  0  0
   21.4538   -3.4538   -0.0346 C   0  0  0  0  0  0  0  0  0  0  0  0
   22.7063   -2.7565   -0.0073 C   0  0  0  0  0  0  0  0  0  0  0  0
   22.5172   -1.4025   -0.0265 N   0  0  0  0  0  0  0  0  0  0  0  0
   23.9245   -3.3989    0.0279 C   0  0  0  0  0  0  0  0  0  0  0  0
   25.1319   -2.7350    0.0352 C   0  0  0  0  0  0  0  0  0  0  0  0
   25.3018   -1.3754    0.0136 N   0  0  0  0  0  0  0  0  0  0  0  0
   26.5122   -4.4769    0.0725 H   0  0  0  0  0  0  0  0  0  0  0  0
   28.4121   -2.5544    0.0426 H   0  0  0  0  0  0  0  0  0  0  0  0
   28.3610    2.6377   -0.0051 H   0  0  0  0  0  0  0  0  0  0  0  0
   26.4237    4.5225    0.0283 H   0  0  0  0  0  0  0  0  0  0  0  0
   23.8471    4.4726    0.0427 H   0  0  0  0  0  0  0  0  0  0  0  0
   21.2648    4.4652    0.0089 H   0  0  0  0  0  0  0  0  0  0  0  0
   19.3726    2.5368   -0.0681 H   0  0  0  0  0  0  0  0  0  0  0  0
   19.4135   -0.0469   -0.1079 H   0  0  0  0  0  0  0  0  0  0  0  0
   19.4242   -2.6309   -0.1020 H   0  0  0  0  0  0  0  0  0  0  0  0
   21.3540   -4.5219   -0.0264 H   0  0  0  0  0  0  0  0  0  0  0  0
   23.9351   -4.4781    0.0432 H   0  0  0  0  0  0  0  0  0  0  0  0
   87.8005    0.0337   -0.0048 Co  0  0  0  0  0  0  0  0  0  0  0  0
   85.3119    3.3861    0.6559 C   0  0  0  0  0  0  0  0  0  0  0  0
   84.3576    2.4474    0.4643 C   0  0  0  0  0  0  0  0  0  0  0  0
   85.0455    1.2163    0.2213 C   0  0  0  0  0  0  0  0  0  0  0  0
   84.3785    0.0116   -0.0097 C   0  0  0  0  0  0  0  0  0  0  0  0
   85.0617   -1.1873   -0.2230 C   0  0  0  0  0  0  0  0  0  0  0  0
   84.3905   -2.4322   -0.4408 C   0  0  0  0  0  0  0  0  0  0  0  0
   85.3573   -3.3651   -0.5937 C   0  0  0  0  0  0  0  0  0  0  0  0
   86.6076   -2.6789   -0.4721 C   0  0  0  0  0  0  0  0  0  0  0  0
   86.4155   -1.3413   -0.2441 N   0  0  0  0  0  0  0  0  0  0  0  0
   87.8257   -3.3131   -0.5840 C   0  0  0  0  0  0  0  0  0  0  0  0
   89.0334   -2.6569   -0.4895 C   0  0  0  0  0  0  0  0  0  0  0  0
   90.2974   -3.3192   -0.6283 C   0  0  0  0  0  0  0  0  0  0  0  0
   91.2458   -2.3672   -0.4934 C   0  0  0  0  0  0  0  0  0  0  0  0
   90.5539   -1.1315   -0.2685 C   0  0  0  0  0  0  0  0  0  0  0  0
   89.2000   -1.3181   -0.2679 N   0  0  0  0  0  0  0  0  0  0  0  0
   91.2019    0.0690   -0.0724 C   0  0  0  0  0  0  0  0  0  0  0  0
   90.5377    1.2529    0.1656 C   0  0  0  0  0  0  0  0  0  0  0  0
   91.2129    2.4977    0.3918 C   0  0  0  0  0  0  0  0  0  0  0  0
   90.2519    3.4230    0.6016 C   0  0  0  0  0  0  0  0  0  0  0  0
   88.9970    2.7375    0.4972 C   0  0  0  0  0  0  0  0  0  0  0  0
   89.1816    1.4093    0.2307 N   0  0  0  0  0  0  0  0  0  0  0  0
   87.7808    3.3679    0.6432 C   0  0  0  0  0  0  0  0  0  0  0  0
   86.5712    2.7188    0.5235 C   0  0  0  0  0  0  0  0  0  0  0  0
   86.3970    1.3857    0.2581 N   0  0  0  0  0  0  0  0  0  0  0  0
   85.1964    4.4317    0.8650 H   0  0  0  0  0  0  0  0  0  0  0  0
   83.2904    2.5533    0.4830 H   0  0  0  0  0  0  0  0  0  0  0  0
   83.3248   -2.5511   -0.4669 H   0  0  0  0  0  0  0  0  0  0  0  0
   85.2560   -4.4175   -0.7738 H   0  0  0  0  0  0  0  0  0  0  0  0
   87.8327   -4.3775   -0.7629 H   0  0  0  0  0  0  0  0  0  0  0  0
   90.4150   -4.3705   -0.8066 H   0  0  0  0  0  0  0  0  0  0  0  0
   92.3133   -2.4656   -0.5356 H   0  0  0  0  0  0  0  0  0  0  0  0
   92.2808    0.0809   -0.0979 H   0  0  0  0  0  0  0  0  0  0  0  0
   92.2788    2.6189    0.3877 H   0  0  0  0  0  0  0  0  0  0  0  0
   90.3553    4.4710    0.8064 H   0  0  0  0  0  0  0  0  0  0  0  0
   87.7735    4.4264    0.8544 H   0  0  0  0  0  0  0  0  0  0  0  0
   28.7130    0.0439   -0.0071 C   0  0  0  0  0  0  0  0  0  0  0  0
   29.9323    0.0552   -0.0105 C   0  0  0  0  0  0  0  0  0  0  0  0
   31.2687    0.0621   -0.0138 C   0  0  0  0  0  0  0  0  0  0  0  0
   32.4925    0.0677   -0.0129 C   0  0  0  0  0  0  0  0  0  0  0  0
   33.8288    0.0707   -0.0143 C   0  0  0  0  0  0  0  0  0  0  0  0
   35.0483    0.0688   -0.0144 C   0  0  0  0  0  0  0  0  0  0  0  0
   44.6917    0.0432   -0.0241 C   0  0  0  0  0  0  0  0  0  0  0  0
   45.9113    0.0398   -0.0180 C   0  0  0  0  0  0  0  0  0  0  0  0
   47.2472    0.0330   -0.0156 C   0  0  0  0  0  0  0  0  0  0  0  0
   48.4711    0.0289   -0.0170 C   0  0  0  0  0  0  0  0  0  0  0  0
   49.8070    0.0256   -0.0144 C   0  0  0  0  0  0  0  0  0  0  0  0
   51.0266    0.0277   -0.0197 C   0  0  0  0  0  0  0  0  0  0  0  0
   60.6694    0.0498   -0.0276 C   0  0  0  0  0  0  0  0  0  0  0  0
   61.8890    0.0482   -0.0250 C   0  0  0  0  0  0  0  0  0  0  0  0
   63.2249    0.0451   -0.0224 C   0  0  0  0  0  0  0  0  0  0  0  0
   64.4488    0.0405   -0.0246 C   0  0  0  0  0  0  0  0  0  0  0  0
   65.7847    0.0340   -0.0205 C   0  0  0  0  0  0  0  0  0  0  0  0
   67.0042    0.0321   -0.0235 C   0  0  0  0  0  0  0  0  0  0  0  0
   76.6465   -0.0173   -0.0275 C   0  0  0  0  0  0  0  0  0  0  0  0
   77.8659   -0.0181   -0.0287 C   0  0  0  0  0  0  0  0  0  0  0  0
   79.2022   -0.0182   -0.0252 C   0  0  0  0  0  0  0  0  0  0  0  0
   80.4259   -0.0117   -0.0252 C   0  0  0  0  0  0  0  0  0  0  0  0
   81.7623   -0.0044   -0.0235 C   0  0  0  0  0  0  0  0  0  0  0  0
   82.9816    0.0038   -0.0179 C   0  0  0  0  0  0  0  0  0  0  0  0
   39.8699    0.0569   -0.0211 Co  0  0  0  0  0  0  0  0  0  0  0  0
   37.3947   -3.3397    0.4308 C   0  0  0  0  0  0  0  0  0  0  0  0
   36.4359   -2.3925    0.3202 C   0  0  0  0  0  0  0  0  0  0  0  0
   37.1180   -1.1466    0.1471 C   0  0  0  0  0  0  0  0  0  0  0  0
   36.4445    0.0662   -0.0153 C   0  0  0  0  0  0  0  0  0  0  0  0
   37.1239    1.2754   -0.1789 C   0  0  0  0  0  0  0  0  0  0  0  0
   36.4481    2.5253   -0.3482 C   0  0  0  0  0  0  0  0  0  0  0  0
   37.4116    3.4673   -0.4612 C   0  0  0  0  0  0  0  0  0  0  0  0
   38.6636    2.7820   -0.3593 C   0  0  0  0  0  0  0  0  0  0  0  0
   38.4765    1.4348   -0.1902 N   0  0  0  0  0  0  0  0  0  0  0  0
   39.8789    3.4278   -0.4147 C   0  0  0  0  0  0  0  0  0  0  0  0
   41.0911    2.7811   -0.3178 C   0  0  0  0  0  0  0  0  0  0  0  0
   42.3466    3.4654   -0.3725 C   0  0  0  0  0  0  0  0  0  0  0  0
   43.3051    2.5178   -0.2624 C   0  0  0  0  0  0  0  0  0  0  0  0
   42.6227    1.2658   -0.1427 C   0  0  0  0  0  0  0  0  0  0  0  0
   41.2711    1.4302   -0.1718 N   0  0  0  0  0  0  0  0  0  0  0  0
   43.2958    0.0477   -0.0254 C   0  0  0  0  0  0  0  0  0  0  0  0
   42.6162   -1.1670    0.0915 C   0  0  0  0  0  0  0  0  0  0  0  0
   43.2924   -2.4228    0.2083 C   0  0  0  0  0  0  0  0  0  0  0  0
   42.3291   -3.3652    0.3209 C   0  0  0  0  0  0  0  0  0  0  0  0
   41.0772   -2.6741    0.2713 C   0  0  0  0  0  0  0  0  0  0  0  0
   41.2640   -1.3242    0.1250 N   0  0  0  0  0  0  0  0  0  0  0  0
   39.8619   -3.3141    0.3737 C   0  0  0  0  0  0  0  0  0  0  0  0
   38.6500   -2.6614    0.3234 C   0  0  0  0  0  0  0  0  0  0  0  0
   38.4697   -1.3133    0.1539 N   0  0  0  0  0  0  0  0  0  0  0  0
   37.2847   -4.3975    0.5706 H   0  0  0  0  0  0  0  0  0  0  0  0
   35.3694   -2.5020    0.3489 H   0  0  0  0  0  0  0  0  0  0  0  0
   35.3820    2.6406   -0.3727 H   0  0  0  0  0  0  0  0  0  0  0  0
   37.3069    4.5258   -0.5992 H   0  0  0  0  0  0  0  0  0  0  0  0
   39.8813    4.5000   -0.5402 H   0  0  0  0  0  0  0  0  0  0  0  0
   42.4569    4.5267   -0.4811 H   0  0  0  0  0  0  0  0  0  0  0  0
   44.3718    2.6307   -0.2614 H   0  0  0  0  0  0  0  0  0  0  0  0
   44.3583   -2.5414    0.2028 H   0  0  0  0  0  0  0  0  0  0  0  0
   42.4340   -4.4272    0.4284 H   0  0  0  0  0  0  0  0  0  0  0  0
   39.8589   -4.3861    0.5000 H   0  0  0  0  0  0  0  0  0  0  0  0
   55.8481    0.0389   -0.0220 Co  0  0  0  0  0  0  0  0  0  0  0  0
   53.3891   -3.3740    0.4050 C   0  0  0  0  0  0  0  0  0  0  0  0
   52.4257   -2.4317    0.2930 C   0  0  0  0  0  0  0  0  0  0  0  0
   53.1017   -1.1808    0.1331 C   0  0  0  0  0  0  0  0  0  0  0  0
   52.4225    0.0300   -0.0196 C   0  0  0  0  0  0  0  0  0  0  0  0
   53.0958    1.2442   -0.1724 C   0  0  0  0  0  0  0  0  0  0  0  0
   52.4131    2.4919   -0.3296 C   0  0  0  0  0  0  0  0  0  0  0  0
   53.3715    3.4394   -0.4406 C   0  0  0  0  0  0  0  0  0  0  0  0
   54.6272    2.7594   -0.3499 C   0  0  0  0  0  0  0  0  0  0  0  0
   54.4474    1.4104   -0.1871 N   0  0  0  0  0  0  0  0  0  0  0  0
   55.8393    3.4100   -0.4169 C   0  0  0  0  0  0  0  0  0  0  0  0
   57.0549    2.7678   -0.3331 C   0  0  0  0  0  0  0  0  0  0  0  0
   58.3070    3.4568   -0.4044 C   0  0  0  0  0  0  0  0  0  0  0  0
   59.2704    2.5141   -0.2959 C   0  0  0  0  0  0  0  0  0  0  0  0
   58.5943    1.2604   -0.1590 C   0  0  0  0  0  0  0  0  0  0  0  0
   57.2418    1.4186   -0.1806 N   0  0  0  0  0  0  0  0  0  0  0  0
   59.2736    0.0473   -0.0267 C   0  0  0  0  0  0  0  0  0  0  0  0
   58.6003   -1.1691    0.1076 C   0  0  0  0  0  0  0  0  0  0  0  0
   59.2829   -2.4194    0.2431 C   0  0  0  0  0  0  0  0  0  0  0  0
   58.3245   -3.3665    0.3572 C   0  0  0  0  0  0  0  0  0  0  0  0
   57.0688   -2.6836    0.2894 C   0  0  0  0  0  0  0  0  0  0  0  0
   57.2487   -1.3338    0.1338 N   0  0  0  0  0  0  0  0  0  0  0  0
   55.8568   -3.3318    0.3778 C   0  0  0  0  0  0  0  0  0  0  0  0
   54.6412   -2.6875    0.3121 C   0  0  0  0  0  0  0  0  0  0  0  0
   54.4541   -1.3398    0.1472 N   0  0  0  0  0  0  0  0  0  0  0  0
   53.2845   -4.4332    0.5374 H   0  0  0  0  0  0  0  0  0  0  0  0
   51.3596   -2.5477    0.3131 H   0  0  0  0  0  0  0  0  0  0  0  0
   51.3464    2.6023   -0.3490 H   0  0  0  0  0  0  0  0  0  0  0  0
   53.2611    4.4983   -0.5711 H   0  0  0  0  0  0  0  0  0  0  0  0
   55.8365    4.4821   -0.5423 H   0  0  0  0  0  0  0  0  0  0  0  0
   58.4117    4.5178   -0.5220 H   0  0  0  0  0  0  0  0  0  0  0  0
   60.3365    2.6313   -0.3049 H   0  0  0  0  0  0  0  0  0  0  0  0
   60.3496   -2.5316    0.2482 H   0  0  0  0  0  0  0  0  0  0  0  0
   58.4348   -4.4267    0.4764 H   0  0  0  0  0  0  0  0  0  0  0  0
   55.8597   -4.4037    0.5052 H   0  0  0  0  0  0  0  0  0  0  0  0
   71.8253    0.0073   -0.0205 Co  0  0  0  0  0  0  0  0  0  0  0  0
   69.3404   -3.3821    0.4372 C   0  0  0  0  0  0  0  0  0  0  0  0
   68.3844   -2.4319    0.3283 C   0  0  0  0  0  0  0  0  0  0  0  0
   69.0700   -1.1887    0.1492 C   0  0  0  0  0  0  0  0  0  0  0  0
   68.4001    0.0249   -0.0216 C   0  0  0  0  0  0  0  0  0  0  0  0
   69.0828    1.2316   -0.1911 C   0  0  0  0  0  0  0  0  0  0  0  0
   68.4101    2.4819   -0.3693 C   0  0  0  0  0  0  0  0  0  0  0  0
   69.3759    3.4225   -0.4756 C   0  0  0  0  0  0  0  0  0  0  0  0
   70.6259    2.7356   -0.3614 C   0  0  0  0  0  0  0  0  0  0  0  0
   70.4356    1.3888   -0.1930 N   0  0  0  0  0  0  0  0  0  0  0  0
   71.8427    3.3797   -0.4030 C   0  0  0  0  0  0  0  0  0  0  0  0
   73.0528    2.7301   -0.2990 C   0  0  0  0  0  0  0  0  0  0  0  0
   74.3100    3.4119   -0.3432 C   0  0  0  0  0  0  0  0  0  0  0  0
   75.2660    2.4614   -0.2376 C   0  0  0  0  0  0  0  0  0  0  0  0
   74.5804    1.2100   -0.1298 C   0  0  0  0  0  0  0  0  0  0  0  0
   73.2292    1.3778   -0.1615 N   0  0  0  0  0  0  0  0  0  0  0  0
   75.2502   -0.0110   -0.0249 C   0  0  0  0  0  0  0  0  0  0  0  0
   74.5677   -1.2246    0.0824 C   0  0  0  0  0  0  0  0  0  0  0  0
   75.2402   -2.4831    0.1897 C   0  0  0  0  0  0  0  0  0  0  0  0
   74.2743   -3.4232    0.3000 C   0  0  0  0  0  0  0  0  0  0  0  0
   73.0244   -2.7279    0.2587 C   0  0  0  0  0  0  0  0  0  0  0  0
   73.2148   -1.3779    0.1186 N   0  0  0  0  0  0  0  0  0  0  0  0
   71.8076   -3.3647    0.3657 C   0  0  0  0  0  0  0  0  0  0  0  0
   70.5976   -2.7081    0.3236 C   0  0  0  0  0  0  0  0  0  0  0  0
   70.4210   -1.3597    0.1531 N   0  0  0  0  0  0  0  0  0  0  0  0
   69.2274   -4.4391    0.5794 H   0  0  0  0  0  0  0  0  0  0  0  0
   67.3176   -2.5378    0.3612 H   0  0  0  0  0  0  0  0  0  0  0  0
   67.3445    2.5987   -0.4037 H   0  0  0  0  0  0  0  0  0  0  0  0
   69.2739    4.4809   -0.6167 H   0  0  0  0  0  0  0  0  0  0  0  0
   71.8483    4.4523   -0.5244 H   0  0  0  0  0  0  0  0  0  0  0  0
   74.4231    4.4738   -0.4435 H   0  0  0  0  0  0  0  0  0  0  0  0
   76.3328    2.5717   -0.2326 H   0  0  0  0  0  0  0  0  0  0  0  0
   76.3058   -2.6048    0.1813 H   0  0  0  0  0  0  0  0  0  0  0  0
   74.3763   -4.4861    0.4016 H   0  0  0  0  0  0  0  0  0  0  0  0
   71.8021   -4.4371    0.4887 H   0  0  0  0  0  0  0  0  0  0  0  0
  2  3  2  0  0  0  0
  3  4  1  0  0  0  0
  4  5  4  0  0  0  0
  5  6  4  0  0  0  0
  6  7  1  0  0  0  0
  7  8  2  0  0  0  0
  8  9  1  0  0  0  0
  1 10  1  0  0  0  0
  6 10  4  0  0  0  0
  9 10  4  0  0  0  0
  9 11  4  0  0  0  0
 11 12  4  0  0  0  0
 12 13  1  0  0  0  0
 13 14  2  0  0  0  0
 14 15  1  0  0  0  0
  1 16  1  0  0  0  0
 12 16  4  0  0  0  0
 15 16  4  0  0  0  0
 15 17  4  0  0  0  0
 17 18  4  0  0  0  0
 18 19  1  0  0  0  0
 19 20  2  0  0  0  0
 20 21  1  0  0  0  0
  1 22  1  0  0  0  0
 18 22  4  0  0  0  0
 21 22  4  0  0  0  0
 21 23  4  0  0  0  0
  2 24  1  0  0  0  0
 23 24  4  0  0  0  0
  1 25  1  0  0  0  0
  4 25  4  0  0  0  0
 24 25  4  0  0  0  0
  2 26  1  0  0  0  0
  3 27  1  0  0  0  0
  7 28  1  0  0  0  0
  8 29  1  0  0  0  0
 11 30  1  0  0  0  0
 13 31  1  0  0  0  0
 14 32  1  0  0  0  0
 17 33  1  0  0  0  0
 19 34  1  0  0  0  0
 20 35  1  0  0  0  0
 23 36  1  0  0  0  0
 38 39  2  0  0  0  0
 39 40  1  0  0  0  0
 40 41  4  0  0  0  0
 41 42  4  0  0  0  0
 42 43  1  0  0  0  0
 43 44  2  0  0  0  0
 44 45  1  0  0  0  0
 37 46  1  0  0  0  0
 42 46  4  0  0  0  0
 45 46  4  0  0  0  0
 45 47  4  0  0  0  0
 47 48  4  0  0  0  0
 48 49  1  0  0  0  0
 49 50  2  0  0  0  0
 50 51  1  0  0  0  0
 37 52  1  0  0  0  0
 48 52  4  0  0  0  0
 51 52  4  0  0  0  0
 51 53  4  0  0  0  0
 53 54  4  0  0  0  0
 54 55  1  0  0  0  0
 55 56  2  0  0  0  0
 56 57  1  0  0  0  0
 37 58  1  0  0  0  0
 54 58  4  0  0  0  0
 57 58  4  0  0  0  0
 57 59  4  0  0  0  0
 38 60  1  0  0  0  0
 59 60  4  0  0  0  0
 37 61  1  0  0  0  0
 40 61  4  0  0  0  0
 60 61  4  0  0  0  0
 38 62  1  0  0  0  0
 39 63  1  0  0  0  0
 43 64  1  0  0  0  0
 44 65  1  0  0  0  0
 47 66  1  0  0  0  0
 49 67  1  0  0  0  0
 50 68  1  0  0  0  0
 53 69  1  0  0  0  0
 55 70  1  0  0  0  0
 56 71  1  0  0  0  0
 59 72  1  0  0  0  0
  5 73  1  0  0  0  0
 73 74  3  0  0  0  0
 74 75  4  0  0  0  0
 75 76  3  0  0  0  0
 76 77  4  0  0  0  0
 77 78  3  0  0  0  0
 79 80  3  0  0  0  0
 80 81  4  0  0  0  0
 81 82  3  0  0  0  0
 82 83  4  0  0  0  0
 83 84  3  0  0  0  0
 85 86  3  0  0  0  0
 86 87  4  0  0  0  0
 87 88  3  0  0  0  0
 88 89  4  0  0  0  0
 89 90  3  0  0  0  0
 91 92  3  0  0  0  0
 92 93  4  0  0  0  0
 93 94  3  0  0  0  0
 94 95  4  0  0  0  0
 41 96  1  0  0  0  0
 95 96  3  0  0  0  0
 98 99  2  0  0  0  0
 99100  1  0  0  0  0
 78101  1  0  0  0  0
100101  4  0  0  0  0
101102  4  0  0  0  0
102103  1  0  0  0  0
103104  2  0  0  0  0
104105  1  0  0  0  0
 97106  1  0  0  0  0
102106  4  0  0  0  0
105106  4  0  0  0  0
105107  4  0  0  0  0
107108  4  0  0  0  0
108109  1  0  0  0  0
109110  2  0  0  0  0
110111  1  0  0  0  0
 97112  1  0  0  0  0
108112  4  0  0  0  0
111112  4  0  0  0  0
 79113  1  0  0  0  0
111113  4  0  0  0  0
113114  4  0  0  0  0
114115  1  0  0  0  0
115116  2  0  0  0  0
116117  1  0  0  0  0
 97118  1  0  0  0  0
114118  4  0  0  0  0
117118  4  0  0  0  0
117119  4  0  0  0  0
 98120  1  0  0  0  0
119120  4  0  0  0  0
 97121  1  0  0  0  0
100121  4  0  0  0  0
120121  4  0  0  0  0
 98122  1  0  0  0  0
 99123  1  0  0  0  0
103124  1  0  0  0  0
104125  1  0  0  0  0
107126  1  0  0  0  0
109127  1  0  0  0  0
110128  1  0  0  0  0
115129  1  0  0  0  0
116130  1  0  0  0  0
119131  1  0  0  0  0
133134  2  0  0  0  0
134135  1  0  0  0  0
 84136  1  0  0  0  0
135136  4  0  0  0  0
136137  4  0  0  0  0
137138  1  0  0  0  0
138139  2  0  0  0  0
139140  1  0  0  0  0
132141  1  0  0  0  0
137141  4  0  0  0  0
140141  4  0  0  0  0
140142  4  0  0  0  0
142143  4  0  0  0  0
143144  1  0  0  0  0
144145  2  0  0  0  0
145146  1  0  0  0  0
132147  1  0  0  0  0
143147  4  0  0  0  0
146147  4  0  0  0  0
 85148  1  0  0  0  0
146148  4  0  0  0  0
148149  4  0  0  0  0
149150  1  0  0  0  0
150151  2  0  0  0  0
151152  1  0  0  0  0
132153  1  0  0  0  0
149153  4  0  0  0  0
152153  4  0  0  0  0
152154  4  0  0  0  0
133155  1  0  0  0  0
154155  4  0  0  0  0
132156  1  0  0  0  0
135156  4  0  0  0  0
155156  4  0  0  0  0
133157  1  0  0  0  0
134158  1  0  0  0  0
138159  1  0  0  0  0
139160  1  0  0  0  0
142161  1  0  0  0  0
144162  1  0  0  0  0
145163  1  0  0  0  0
150164  1  0  0  0  0
151165  1  0  0  0  0
154166  1  0  0  0  0
168169  2  0  0  0  0
169170  1  0  0  0  0
 90171  1  0  0  0  0
170171  4  0  0  0  0
171172  4  0  0  0  0
172173  1  0  0  0  0
173174  2  0  0  0  0
174175  1  0  0  0  0
167176  1  0  0  0  0
172176  4  0  0  0  0
175176  4  0  0  0  0
175177  4  0  0  0  0
177178  4  0  0  0  0
178179  1  0  0  0  0
179180  2  0  0  0  0
180181  1  0  0  0  0
167182  1  0  0  0  0
178182  4  0  0  0  0
181182  4  0  0  0  0
 91183  1  0  0  0  0
181183  4  0  0  0  0
183184  4  0  0  0  0
184185  1  0  0  0  0
185186  2  0  0  0  0
186187  1  0  0  0  0
167188  1  0  0  0  0
184188  4  0  0  0  0
187188  4  0  0  0  0
187189  4  0  0  0  0
168190  1  0  0  0  0
189190  4  0  0  0  0
167191  1  0  0  0  0
170191  4  0  0  0  0
190191  4  0  0  0  0
168192  1  0  0  0  0
169193  1  0  0  0  0
173194  1  0  0  0  0
174195  1  0  0  0  0
177196  1  0  0  0  0
179197  1  0  0  0  0
180198  1  0  0  0  0
185199  1  0  0  0  0
186200  1  0  0  0  0
189201  1  0  0  0  0
M  END
