
  xtb     11202115543D
 xtb: 6.4.1 (bd6e46d)
 74 89  0     0  0            999 V2000
    9.2158   -0.0577    0.0313 Ni  0  0  0  0  0  0  0  0  0  0  0  0
   11.6421   -3.4677    0.6018 C   0  0  0  0  0  0  0  0  0  0  0  0
   12.6101   -2.5265    0.5316 C   0  0  0  0  0  0  0  0  0  0  0  0
   11.9522   -1.2809    0.2764 C   0  0  0  0  0  0  0  0  0  0  0  0
   12.6441   -0.0852    0.0657 C   0  0  0  0  0  0  0  0  0  0  0  0
   11.9758    1.1209   -0.1640 C   0  0  0  0  0  0  0  0  0  0  0  0
   12.6589    2.3544   -0.4134 C   0  0  0  0  0  0  0  0  0  0  0  0
   11.7072    3.3102   -0.5066 C   0  0  0  0  0  0  0  0  0  0  0  0
   10.4482    2.6524   -0.3246 C   0  0  0  0  0  0  0  0  0  0  0  0
   10.6265    1.3079   -0.1368 N   0  0  0  0  0  0  0  0  0  0  0  0
    9.2427    3.3236   -0.3118 C   0  0  0  0  0  0  0  0  0  0  0  0
    8.0254    2.6899   -0.1721 C   0  0  0  0  0  0  0  0  0  0  0  0
    6.7717    3.3875   -0.1619 C   0  0  0  0  0  0  0  0  0  0  0  0
    5.8073    2.4459   -0.0767 C   0  0  0  0  0  0  0  0  0  0  0  0
    6.4759    1.1769   -0.0337 C   0  0  0  0  0  0  0  0  0  0  0  0
    7.8308    1.3412   -0.0772 N   0  0  0  0  0  0  0  0  0  0  0  0
    5.8064   -0.0293    0.0055 C   0  0  0  0  0  0  0  0  0  0  0  0
    6.4550   -1.2465    0.0537 C   0  0  0  0  0  0  0  0  0  0  0  0
    5.7648   -2.5042    0.0849 C   0  0  0  0  0  0  0  0  0  0  0  0
    6.7121   -3.4620    0.1817 C   0  0  0  0  0  0  0  0  0  0  0  0
    7.9770   -2.7854    0.2112 C   0  0  0  0  0  0  0  0  0  0  0  0
    7.8062   -1.4334    0.1165 N   0  0  0  0  0  0  0  0  0  0  0  0
    9.1814   -3.4396    0.3666 C   0  0  0  0  0  0  0  0  0  0  0  0
   10.3974   -2.7884    0.4007 C   0  0  0  0  0  0  0  0  0  0  0  0
   10.6008   -1.4462    0.2223 N   0  0  0  0  0  0  0  0  0  0  0  0
   11.7386   -4.5220    0.7740 H   0  0  0  0  0  0  0  0  0  0  0  0
   13.6696   -2.6386    0.6483 H   0  0  0  0  0  0  0  0  0  0  0  0
   13.7221    2.4491   -0.5129 H   0  0  0  0  0  0  0  0  0  0  0  0
   11.8239    4.3618   -0.6831 H   0  0  0  0  0  0  0  0  0  0  0  0
    9.2537    4.3971   -0.4224 H   0  0  0  0  0  0  0  0  0  0  0  0
    6.6712    4.4542   -0.2178 H   0  0  0  0  0  0  0  0  0  0  0  0
    4.7422    2.5709   -0.0474 H   0  0  0  0  0  0  0  0  0  0  0  0
    4.7273   -0.0203   -0.0024 H   0  0  0  0  0  0  0  0  0  0  0  0
    4.6983   -2.6114    0.0401 H   0  0  0  0  0  0  0  0  0  0  0  0
    6.5929   -4.5270    0.2342 H   0  0  0  0  0  0  0  0  0  0  0  0
    9.1729   -4.5135    0.4739 H   0  0  0  0  0  0  0  0  0  0  0  0
   14.0466   -0.0904    0.0846 C   0  0  0  0  0  0  0  0  0  0  0  0
   15.2591   -0.0820    0.1039 C   0  0  0  0  0  0  0  0  0  0  0  0
   20.0801    0.0587   -0.0327 Ni  0  0  0  0  0  0  0  0  0  0  0  0
   17.5559    3.3282    0.8276 C   0  0  0  0  0  0  0  0  0  0  0  0
   16.6163    2.3657    0.6884 C   0  0  0  0  0  0  0  0  0  0  0  0
   17.3116    1.1625    0.3434 C   0  0  0  0  0  0  0  0  0  0  0  0
   16.6612   -0.0533    0.1100 C   0  0  0  0  0  0  0  0  0  0  0  0
   17.3731   -1.2407   -0.0808 C   0  0  0  0  0  0  0  0  0  0  0  0
   16.7383   -2.5164   -0.2197 C   0  0  0  0  0  0  0  0  0  0  0  0
   17.7268   -3.4383   -0.2543 C   0  0  0  0  0  0  0  0  0  0  0  0
   18.9611   -2.7168   -0.1710 C   0  0  0  0  0  0  0  0  0  0  0  0
   18.7295   -1.3710   -0.0754 N   0  0  0  0  0  0  0  0  0  0  0  0
   20.1973   -3.3293   -0.2122 C   0  0  0  0  0  0  0  0  0  0  0  0
   21.3845   -2.6289   -0.2709 C   0  0  0  0  0  0  0  0  0  0  0  0
   22.6639   -3.2601   -0.4249 C   0  0  0  0  0  0  0  0  0  0  0  0
   23.5697   -2.2673   -0.5604 C   0  0  0  0  0  0  0  0  0  0  0  0
   22.8436   -1.0333   -0.4642 C   0  0  0  0  0  0  0  0  0  0  0  0
   21.5114   -1.2689   -0.2803 N   0  0  0  0  0  0  0  0  0  0  0  0
   23.4447    0.2074   -0.5354 C   0  0  0  0  0  0  0  0  0  0  0  0
   22.7554    1.3860   -0.3328 C   0  0  0  0  0  0  0  0  0  0  0  0
   23.3890    2.6734   -0.3067 C   0  0  0  0  0  0  0  0  0  0  0  0
   22.4317    3.5682    0.0211 C   0  0  0  0  0  0  0  0  0  0  0  0
   21.2128    2.8271    0.1731 C   0  0  0  0  0  0  0  0  0  0  0  0
   21.4231    1.4971   -0.0549 N   0  0  0  0  0  0  0  0  0  0  0  0
   20.0063    3.4097    0.5037 C   0  0  0  0  0  0  0  0  0  0  0  0
   18.8184    2.7094    0.5548 C   0  0  0  0  0  0  0  0  0  0  0  0
   18.6553    1.3769    0.2840 N   0  0  0  0  0  0  0  0  0  0  0  0
   17.4277    4.3625    1.0812 H   0  0  0  0  0  0  0  0  0  0  0  0
   15.5551    2.4349    0.8248 H   0  0  0  0  0  0  0  0  0  0  0  0
   15.6782   -2.6619   -0.2804 H   0  0  0  0  0  0  0  0  0  0  0  0
   17.6502   -4.5047   -0.3410 H   0  0  0  0  0  0  0  0  0  0  0  0
   20.2338   -4.4074   -0.2442 H   0  0  0  0  0  0  0  0  0  0  0  0
   22.8185   -4.3217   -0.4383 H   0  0  0  0  0  0  0  0  0  0  0  0
   24.6307   -2.3367   -0.7040 H   0  0  0  0  0  0  0  0  0  0  0  0
   24.5068    0.2561   -0.7199 H   0  0  0  0  0  0  0  0  0  0  0  0
   24.4304    2.8404   -0.5034 H   0  0  0  0  0  0  0  0  0  0  0  0
   22.5153    4.6304    0.1471 H   0  0  0  0  0  0  0  0  0  0  0  0
   19.9842    4.4706    0.7009 H   0  0  0  0  0  0  0  0  0  0  0  0
  2  3  2  0  0  0  0
  3  4  1  0  0  0  0
  4  5  4  0  0  0  0
  5  6  4  0  0  0  0
  6  7  1  0  0  0  0
  7  8  2  0  0  0  0
  8  9  1  0  0  0  0
  1 10  1  0  0  0  0
  6 10  4  0  0  0  0
  9 10  4  0  0  0  0
  9 11  4  0  0  0  0
 11 12  4  0  0  0  0
 12 13  1  0  0  0  0
 13 14  2  0  0  0  0
 14 15  1  0  0  0  0
  1 16  1  0  0  0  0
 12 16  4  0  0  0  0
 15 16  4  0  0  0  0
 15 17  4  0  0  0  0
 17 18  4  0  0  0  0
 18 19  1  0  0  0  0
 19 20  2  0  0  0  0
 20 21  1  0  0  0  0
  1 22  1  0  0  0  0
 18 22  4  0  0  0  0
 21 22  4  0  0  0  0
 21 23  4  0  0  0  0
  2 24  1  0  0  0  0
 23 24  4  0  0  0  0
  1 25  1  0  0  0  0
  4 25  4  0  0  0  0
 24 25  4  0  0  0  0
  2 26  1  0  0  0  0
  3 27  1  0  0  0  0
  7 28  1  0  0  0  0
  8 29  1  0  0  0  0
 11 30  1  0  0  0  0
 13 31  1  0  0  0  0
 14 32  1  0  0  0  0
 17 33  1  0  0  0  0
 19 34  1  0  0  0  0
 20 35  1  0  0  0  0
 23 36  1  0  0  0  0
  5 37  1  0  0  0  0
 37 38  3  0  0  0  0
 40 41  2  0  0  0  0
 41 42  1  0  0  0  0
 38 43  1  0  0  0  0
 42 43  4  0  0  0  0
 43 44  4  0  0  0  0
 44 45  1  0  0  0  0
 45 46  2  0  0  0  0
 46 47  1  0  0  0  0
 39 48  1  0  0  0  0
 44 48  4  0  0  0  0
 47 48  4  0  0  0  0
 47 49  4  0  0  0  0
 49 50  4  0  0  0  0
 50 51  1  0  0  0  0
 51 52  2  0  0  0  0
 52 53  1  0  0  0  0
 39 54  1  0  0  0  0
 50 54  4  0  0  0  0
 53 54  4  0  0  0  0
 53 55  4  0  0  0  0
 55 56  4  0  0  0  0
 56 57  1  0  0  0  0
 57 58  2  0  0  0  0
 58 59  1  0  0  0  0
 39 60  1  0  0  0  0
 56 60  4  0  0  0  0
 59 60  4  0  0  0  0
 59 61  4  0  0  0  0
 40 62  1  0  0  0  0
 61 62  4  0  0  0  0
 39 63  1  0  0  0  0
 42 63  4  0  0  0  0
 62 63  4  0  0  0  0
 40 64  1  0  0  0  0
 41 65  1  0  0  0  0
 45 66  1  0  0  0  0
 46 67  1  0  0  0  0
 49 68  1  0  0  0  0
 51 69  1  0  0  0  0
 52 70  1  0  0  0  0
 55 71  1  0  0  0  0
 57 72  1  0  0  0  0
 58 73  1  0  0  0  0
 61 74  1  0  0  0  0
M  END
