
  xtb     11212119233D
 xtb: 6.4.1 (bd6e46d)
296359  0     0  0            999 V2000
   59.5318    0.0364   -0.0120 Cu  0  0  0  0  0  0  0  0  0  0  0  0
   62.0172   -0.7012    3.3627 C   0  0  0  0  0  0  0  0  0  0  0  0
   62.9812   -0.4812    2.4376 C   0  0  0  0  0  0  0  0  0  0  0  0
   62.3093   -0.2322    1.1945 C   0  0  0  0  0  0  0  0  0  0  0  0
   62.9713    0.0307   -0.0127 C   0  0  0  0  0  0  0  0  0  0  0  0
   62.3094    0.2942   -1.2199 C   0  0  0  0  0  0  0  0  0  0  0  0
   62.9815    0.5378   -2.4640 C   0  0  0  0  0  0  0  0  0  0  0  0
   62.0178    0.7592   -3.3890 C   0  0  0  0  0  0  0  0  0  0  0  0
   60.7589    0.6445   -2.7098 C   0  0  0  0  0  0  0  0  0  0  0  0
   60.9693    0.3574   -1.3965 N   0  0  0  0  0  0  0  0  0  0  0  0
   59.5304    0.8075   -3.3248 C   0  0  0  0  0  0  0  0  0  0  0  0
   58.3026    0.6814   -2.7005 C   0  0  0  0  0  0  0  0  0  0  0  0
   57.0381    0.8522   -3.3629 C   0  0  0  0  0  0  0  0  0  0  0  0
   56.0794    0.6366   -2.4335 C   0  0  0  0  0  0  0  0  0  0  0  0
   56.7571    0.3335   -1.2021 C   0  0  0  0  0  0  0  0  0  0  0  0
   58.0997    0.3714   -1.3949 N   0  0  0  0  0  0  0  0  0  0  0  0
   56.1150    0.0426   -0.0113 C   0  0  0  0  0  0  0  0  0  0  0  0
   56.7567   -0.2510    1.1791 C   0  0  0  0  0  0  0  0  0  0  0  0
   56.0787   -0.5510    2.4109 C   0  0  0  0  0  0  0  0  0  0  0  0
   57.0371   -0.7709    3.3397 C   0  0  0  0  0  0  0  0  0  0  0  0
   58.3018   -0.6059    2.6763 C   0  0  0  0  0  0  0  0  0  0  0  0
   58.0994   -0.2948    1.3709 N   0  0  0  0  0  0  0  0  0  0  0  0
   59.5294   -0.7381    3.2999 C   0  0  0  0  0  0  0  0  0  0  0  0
   60.7583   -0.5799    2.6844 C   0  0  0  0  0  0  0  0  0  0  0  0
   60.9691   -0.2909    1.3717 N   0  0  0  0  0  0  0  0  0  0  0  0
   62.1289   -0.9215    4.4067 H   0  0  0  0  0  0  0  0  0  0  0  0
   64.0458   -0.4699    2.5667 H   0  0  0  0  0  0  0  0  0  0  0  0
   64.0460    0.5218   -2.5937 H   0  0  0  0  0  0  0  0  0  0  0  0
   62.1298    0.9762   -4.4337 H   0  0  0  0  0  0  0  0  0  0  0  0
   59.5314    1.0482   -4.3782 H   0  0  0  0  0  0  0  0  0  0  0  0
   56.9234    1.1030   -4.3999 H   0  0  0  0  0  0  0  0  0  0  0  0
   55.0131    0.6727   -2.5479 H   0  0  0  0  0  0  0  0  0  0  0  0
   55.0348    0.0449   -0.0109 H   0  0  0  0  0  0  0  0  0  0  0  0
   55.0124   -0.5822    2.5262 H   0  0  0  0  0  0  0  0  0  0  0  0
   56.9221   -1.0208    4.3768 H   0  0  0  0  0  0  0  0  0  0  0  0
   59.5298   -0.9798    4.3530 H   0  0  0  0  0  0  0  0  0  0  0  0
  135.9162    0.0366   -0.0161 Cu  0  0  0  0  0  0  0  0  0  0  0  0
  133.4324    1.1829    3.2435 C   0  0  0  0  0  0  0  0  0  0  0  0
  132.4681    0.8487    2.3536 C   0  0  0  0  0  0  0  0  0  0  0  0
  133.1396    0.4483    1.1505 C   0  0  0  0  0  0  0  0  0  0  0  0
  132.4769    0.0342   -0.0131 C   0  0  0  0  0  0  0  0  0  0  0  0
  133.1378   -0.3812   -1.1773 C   0  0  0  0  0  0  0  0  0  0  0  0
  132.4649   -0.7869   -2.3779 C   0  0  0  0  0  0  0  0  0  0  0  0
  133.4282   -1.1229   -3.2682 C   0  0  0  0  0  0  0  0  0  0  0  0
  134.6876   -0.9158   -2.6122 C   0  0  0  0  0  0  0  0  0  0  0  0
  134.4779   -0.4623   -1.3466 N   0  0  0  0  0  0  0  0  0  0  0  0
  135.9161   -1.1482   -3.2046 C   0  0  0  0  0  0  0  0  0  0  0  0
  137.1441   -0.9356   -2.6046 C   0  0  0  0  0  0  0  0  0  0  0  0
  138.4085   -1.1794   -3.2440 C   0  0  0  0  0  0  0  0  0  0  0  0
  139.3675   -0.8448   -2.3508 C   0  0  0  0  0  0  0  0  0  0  0  0
  138.6901   -0.3956   -1.1648 C   0  0  0  0  0  0  0  0  0  0  0  0
  137.3474   -0.4642   -1.3483 N   0  0  0  0  0  0  0  0  0  0  0  0
  139.3327    0.0424   -0.0201 C   0  0  0  0  0  0  0  0  0  0  0  0
  138.6917    0.4787    1.1260 C   0  0  0  0  0  0  0  0  0  0  0  0
  139.3703    0.9315    2.3099 C   0  0  0  0  0  0  0  0  0  0  0  0
  138.4124    1.2623    3.2056 C   0  0  0  0  0  0  0  0  0  0  0  0
  137.1473    1.0123    2.5700 C   0  0  0  0  0  0  0  0  0  0  0  0
  137.3492    0.5419    1.3131 N   0  0  0  0  0  0  0  0  0  0  0  0
  135.9199    1.2172    3.1740 C   0  0  0  0  0  0  0  0  0  0  0  0
  134.6910    0.9806    2.5844 C   0  0  0  0  0  0  0  0  0  0  0  0
  134.4798    0.5306    1.3178 N   0  0  0  0  0  0  0  0  0  0  0  0
  133.3211    1.5303    4.2524 H   0  0  0  0  0  0  0  0  0  0  0  0
  131.4036    0.8520    2.4839 H   0  0  0  0  0  0  0  0  0  0  0  0
  131.4002   -0.7920   -2.5066 H   0  0  0  0  0  0  0  0  0  0  0  0
  133.3156   -1.4748   -4.2754 H   0  0  0  0  0  0  0  0  0  0  0  0
  135.9149   -1.5208   -4.2188 H   0  0  0  0  0  0  0  0  0  0  0  0
  138.5229   -1.5556   -4.2424 H   0  0  0  0  0  0  0  0  0  0  0  0
  140.4337   -0.8884   -2.4624 H   0  0  0  0  0  0  0  0  0  0  0  0
  140.4130    0.0438   -0.0214 H   0  0  0  0  0  0  0  0  0  0  0  0
  140.4367    0.9799    2.4186 H   0  0  0  0  0  0  0  0  0  0  0  0
  138.5279    1.6401    4.2033 H   0  0  0  0  0  0  0  0  0  0  0  0
  135.9198    1.5878    4.1890 H   0  0  0  0  0  0  0  0  0  0  0  0
   64.3737    0.0299   -0.0132 C   0  0  0  0  0  0  0  0  0  0  0  0
   65.5867    0.0294   -0.0123 C   0  0  0  0  0  0  0  0  0  0  0  0
   75.2849    0.0557   -0.0211 C   0  0  0  0  0  0  0  0  0  0  0  0
   76.4984    0.0602   -0.0221 C   0  0  0  0  0  0  0  0  0  0  0  0
   86.1996    0.0355   -0.0245 C   0  0  0  0  0  0  0  0  0  0  0  0
   87.4134    0.0349   -0.0235 C   0  0  0  0  0  0  0  0  0  0  0  0
   97.1167    0.0419   -0.0239 C   0  0  0  0  0  0  0  0  0  0  0  0
   98.3306    0.0418   -0.0259 C   0  0  0  0  0  0  0  0  0  0  0  0
  108.0331    0.0536   -0.0278 C   0  0  0  0  0  0  0  0  0  0  0  0
  109.2469    0.0535   -0.0263 C   0  0  0  0  0  0  0  0  0  0  0  0
  118.9486    0.0313   -0.0167 C   0  0  0  0  0  0  0  0  0  0  0  0
  120.1622    0.0336   -0.0173 C   0  0  0  0  0  0  0  0  0  0  0  0
  129.8615    0.0349   -0.0116 C   0  0  0  0  0  0  0  0  0  0  0  0
  131.0744    0.0345   -0.0119 C   0  0  0  0  0  0  0  0  0  0  0  0
   70.4356    0.0362   -0.0220 Cu  0  0  0  0  0  0  0  0  0  0  0  0
   67.9583   -2.2377    2.5844 C   0  0  0  0  0  0  0  0  0  0  0  0
   66.9897   -1.6373    1.8527 C   0  0  0  0  0  0  0  0  0  0  0  0
   67.6554   -0.7807    0.9138 C   0  0  0  0  0  0  0  0  0  0  0  0
   66.9886    0.0306   -0.0151 C   0  0  0  0  0  0  0  0  0  0  0  0
   67.6490    0.8420   -0.9484 C   0  0  0  0  0  0  0  0  0  0  0  0
   66.9769    1.6938   -1.8871 C   0  0  0  0  0  0  0  0  0  0  0  0
   67.9404    2.2923   -2.6269 C   0  0  0  0  0  0  0  0  0  0  0  0
   69.1986    1.8103   -2.1335 C   0  0  0  0  0  0  0  0  0  0  0  0
   68.9884    0.9379   -1.1108 N   0  0  0  0  0  0  0  0  0  0  0  0
   70.4267    2.1836   -2.6486 C   0  0  0  0  0  0  0  0  0  0  0  0
   71.6579    1.7584   -2.1836 C   0  0  0  0  0  0  0  0  0  0  0  0
   72.9124    2.1533   -2.7571 C   0  0  0  0  0  0  0  0  0  0  0  0
   73.8810    1.5535   -2.0250 C   0  0  0  0  0  0  0  0  0  0  0  0
   73.2160    0.7998   -1.0015 C   0  0  0  0  0  0  0  0  0  0  0  0
   71.8755    0.9312   -1.1253 N   0  0  0  0  0  0  0  0  0  0  0  0
   73.8836    0.0513   -0.0212 C   0  0  0  0  0  0  0  0  0  0  0  0
   73.2219   -0.7050    0.9574 C   0  0  0  0  0  0  0  0  0  0  0  0
   73.8931   -1.4567    1.9784 C   0  0  0  0  0  0  0  0  0  0  0  0
   72.9295   -2.0703    2.7058 C   0  0  0  0  0  0  0  0  0  0  0  0
   71.6719   -1.6843    2.1332 C   0  0  0  0  0  0  0  0  0  0  0  0
   71.8827   -0.8498    1.0793 N   0  0  0  0  0  0  0  0  0  0  0  0
   70.4442   -2.1209    2.5968 C   0  0  0  0  0  0  0  0  0  0  0  0
   69.2130   -1.7506    2.0871 C   0  0  0  0  0  0  0  0  0  0  0  0
   68.9958   -0.8743    1.0691 N   0  0  0  0  0  0  0  0  0  0  0  0
   67.8520   -2.9456    3.3835 H   0  0  0  0  0  0  0  0  0  0  0  0
   65.9261   -1.7591    1.9173 H   0  0  0  0  0  0  0  0  0  0  0  0
   65.9128    1.8138   -1.9462 H   0  0  0  0  0  0  0  0  0  0  0  0
   67.8285    2.9963   -3.4287 H   0  0  0  0  0  0  0  0  0  0  0  0
   70.4241    2.8673   -3.4856 H   0  0  0  0  0  0  0  0  0  0  0  0
   73.0186    2.7991   -3.6071 H   0  0  0  0  0  0  0  0  0  0  0  0
   74.9444    1.5937   -2.1571 H   0  0  0  0  0  0  0  0  0  0  0  0
   74.9565   -1.4865    2.1126 H   0  0  0  0  0  0  0  0  0  0  0  0
   73.0413   -2.7195    3.5525 H   0  0  0  0  0  0  0  0  0  0  0  0
   70.4472   -2.8094    3.4298 H   0  0  0  0  0  0  0  0  0  0  0  0
   81.3487    0.0514   -0.0188 Cu  0  0  0  0  0  0  0  0  0  0  0  0
   78.8567   -3.0119    1.5605 C   0  0  0  0  0  0  0  0  0  0  0  0
   77.8925   -2.1870    1.0870 C   0  0  0  0  0  0  0  0  0  0  0  0
   78.5623   -1.0430    0.5391 C   0  0  0  0  0  0  0  0  0  0  0  0
   77.8996    0.0592   -0.0209 C   0  0  0  0  0  0  0  0  0  0  0  0
   78.5674    1.1591   -0.5787 C   0  0  0  0  0  0  0  0  0  0  0  0
   77.9034    2.3063   -1.1271 C   0  0  0  0  0  0  0  0  0  0  0  0
   78.8722    3.1286   -1.5957 C   0  0  0  0  0  0  0  0  0  0  0  0
   80.1256    2.4849   -1.3256 C   0  0  0  0  0  0  0  0  0  0  0  0
   79.9075    1.2970   -0.6989 N   0  0  0  0  0  0  0  0  0  0  0  0
   81.3562    3.0065   -1.6813 C   0  0  0  0  0  0  0  0  0  0  0  0
   82.5837    2.4253   -1.4196 C   0  0  0  0  0  0  0  0  0  0  0  0
   83.8398    2.9828   -1.8314 C   0  0  0  0  0  0  0  0  0  0  0  0
   84.8040    2.1485   -1.3751 C   0  0  0  0  0  0  0  0  0  0  0  0
   84.1352    1.0887   -0.6772 C   0  0  0  0  0  0  0  0  0  0  0  0
   82.7960    1.2712   -0.7305 N   0  0  0  0  0  0  0  0  0  0  0  0
   84.7986    0.0393   -0.0239 C   0  0  0  0  0  0  0  0  0  0  0  0
   84.1299   -1.0050    0.6321 C   0  0  0  0  0  0  0  0  0  0  0  0
   84.7936   -2.0675    1.3306 C   0  0  0  0  0  0  0  0  0  0  0  0
   83.8249   -2.8931    1.7934 C   0  0  0  0  0  0  0  0  0  0  0  0
   82.5715   -2.3279    1.3841 C   0  0  0  0  0  0  0  0  0  0  0  0
   82.7897   -1.1776    0.6905 N   0  0  0  0  0  0  0  0  0  0  0  0
   81.3410   -2.9006    1.6499 C   0  0  0  0  0  0  0  0  0  0  0  0
   80.1133   -2.3737    1.2924 C   0  0  0  0  0  0  0  0  0  0  0  0
   79.9015   -1.1860    0.6630 N   0  0  0  0  0  0  0  0  0  0  0  0
   78.7459   -3.9640    2.0424 H   0  0  0  0  0  0  0  0  0  0  0  0
   76.8295   -2.3278    1.0864 H   0  0  0  0  0  0  0  0  0  0  0  0
   76.8408    2.4504   -1.1303 H   0  0  0  0  0  0  0  0  0  0  0  0
   78.7666    4.0820   -2.0762 H   0  0  0  0  0  0  0  0  0  0  0  0
   81.3588    3.9488   -2.2105 H   0  0  0  0  0  0  0  0  0  0  0  0
   83.9502    3.8880   -2.3965 H   0  0  0  0  0  0  0  0  0  0  0  0
   85.8666    2.2185   -1.5007 H   0  0  0  0  0  0  0  0  0  0  0  0
   85.8561   -2.1453    1.4519 H   0  0  0  0  0  0  0  0  0  0  0  0
   83.9305   -3.7972    2.3612 H   0  0  0  0  0  0  0  0  0  0  0  0
   81.3387   -3.8412    2.1821 H   0  0  0  0  0  0  0  0  0  0  0  0
   92.2649    0.0393   -0.0188 Cu  0  0  0  0  0  0  0  0  0  0  0  0
   89.7852   -3.3702    0.5345 C   0  0  0  0  0  0  0  0  0  0  0  0
   88.8176   -2.4447    0.3306 C   0  0  0  0  0  0  0  0  0  0  0  0
   89.4818   -1.1840    0.1671 C   0  0  0  0  0  0  0  0  0  0  0  0
   88.8144    0.0354   -0.0220 C   0  0  0  0  0  0  0  0  0  0  0  0
   89.4799    1.2565   -0.2077 C   0  0  0  0  0  0  0  0  0  0  0  0
   88.8134    2.5165   -0.3672 C   0  0  0  0  0  0  0  0  0  0  0  0
   89.7793    3.4449   -0.5655 C   0  0  0  0  0  0  0  0  0  0  0  0
   91.0339    2.7510   -0.5177 C   0  0  0  0  0  0  0  0  0  0  0  0
   90.8193    1.4271   -0.2870 N   0  0  0  0  0  0  0  0  0  0  0  0
   92.2620    3.3579   -0.7083 C   0  0  0  0  0  0  0  0  0  0  0  0
   93.4912    2.7273   -0.6435 C   0  0  0  0  0  0  0  0  0  0  0  0
   94.7443    3.3848   -0.8784 C   0  0  0  0  0  0  0  0  0  0  0  0
   95.7119    2.4551   -0.6947 C   0  0  0  0  0  0  0  0  0  0  0  0
   95.0481    1.2347   -0.3382 C   0  0  0  0  0  0  0  0  0  0  0  0
   93.7085    1.4210   -0.3297 N   0  0  0  0  0  0  0  0  0  0  0  0
   95.7157    0.0420   -0.0218 C   0  0  0  0  0  0  0  0  0  0  0  0
   95.0499   -1.1510    0.2977 C   0  0  0  0  0  0  0  0  0  0  0  0
   95.7162   -2.3696    0.6557 C   0  0  0  0  0  0  0  0  0  0  0  0
   94.7503   -3.3000    0.8445 C   0  0  0  0  0  0  0  0  0  0  0  0
   93.4958   -2.6449    0.6104 C   0  0  0  0  0  0  0  0  0  0  0  0
   93.7105   -1.3391    0.2928 N   0  0  0  0  0  0  0  0  0  0  0  0
   92.2678   -3.2776    0.6785 C   0  0  0  0  0  0  0  0  0  0  0  0
   91.0385   -2.6740    0.4853 C   0  0  0  0  0  0  0  0  0  0  0  0
   90.8214   -1.3515    0.2491 N   0  0  0  0  0  0  0  0  0  0  0  0
   89.6788   -4.4250    0.6993 H   0  0  0  0  0  0  0  0  0  0  0  0
   87.7558   -2.5841    0.2786 H   0  0  0  0  0  0  0  0  0  0  0  0
   87.7512    2.6536   -0.3156 H   0  0  0  0  0  0  0  0  0  0  0  0
   89.6708    4.5001   -0.7256 H   0  0  0  0  0  0  0  0  0  0  0  0
   92.2609    4.4162   -0.9274 H   0  0  0  0  0  0  0  0  0  0  0  0
   94.8506    4.4171   -1.1505 H   0  0  0  0  0  0  0  0  0  0  0  0
   96.7735    2.5621   -0.7998 H   0  0  0  0  0  0  0  0  0  0  0  0
   96.7783   -2.4745    0.7584 H   0  0  0  0  0  0  0  0  0  0  0  0
   94.8587   -4.3314    1.1194 H   0  0  0  0  0  0  0  0  0  0  0  0
   92.2691   -4.3351    0.9014 H   0  0  0  0  0  0  0  0  0  0  0  0
  103.1821    0.0476   -0.0310 Cu  0  0  0  0  0  0  0  0  0  0  0  0
  100.7039   -3.3839   -0.4328 C   0  0  0  0  0  0  0  0  0  0  0  0
   99.7360   -2.4386   -0.3717 C   0  0  0  0  0  0  0  0  0  0  0  0
  100.3996   -1.1812   -0.1826 C   0  0  0  0  0  0  0  0  0  0  0  0
   99.7316    0.0427   -0.0278 C   0  0  0  0  0  0  0  0  0  0  0  0
  100.3968    1.2686    0.1248 C   0  0  0  0  0  0  0  0  0  0  0  0
   99.7299    2.5242    0.3139 C   0  0  0  0  0  0  0  0  0  0  0  0
  100.6951    3.4726    0.3706 C   0  0  0  0  0  0  0  0  0  0  0  0
  101.9499    2.7926    0.2264 C   0  0  0  0  0  0  0  0  0  0  0  0
  101.7360    1.4554    0.0913 N   0  0  0  0  0  0  0  0  0  0  0  0
  103.1776    3.4292    0.2071 C   0  0  0  0  0  0  0  0  0  0  0  0
  104.4071    2.8049    0.1011 C   0  0  0  0  0  0  0  0  0  0  0  0
  105.6605    3.5015    0.0589 C   0  0  0  0  0  0  0  0  0  0  0  0
  106.6284    2.5569   -0.0134 C   0  0  0  0  0  0  0  0  0  0  0  0
  105.9643    1.2856   -0.0061 C   0  0  0  0  0  0  0  0  0  0  0  0
  104.6245    1.4625    0.0481 N   0  0  0  0  0  0  0  0  0  0  0  0
  106.6321    0.0521   -0.0285 C   0  0  0  0  0  0  0  0  0  0  0  0
  105.9675   -1.1831   -0.0526 C   0  0  0  0  0  0  0  0  0  0  0  0
  106.6347   -2.4528   -0.0453 C   0  0  0  0  0  0  0  0  0  0  0  0
  105.6694   -3.3997   -0.1214 C   0  0  0  0  0  0  0  0  0  0  0  0
  104.4144   -2.7062   -0.1655 C   0  0  0  0  0  0  0  0  0  0  0  0
  104.6283   -1.3634   -0.1102 N   0  0  0  0  0  0  0  0  0  0  0  0
  103.1865   -3.3335   -0.2735 C   0  0  0  0  0  0  0  0  0  0  0  0
  101.9570   -2.7004   -0.2905 C   0  0  0  0  0  0  0  0  0  0  0  0
  101.7394   -1.3641   -0.1527 N   0  0  0  0  0  0  0  0  0  0  0  0
  100.5978   -4.4433   -0.5650 H   0  0  0  0  0  0  0  0  0  0  0  0
   98.6741   -2.5591   -0.4587 H   0  0  0  0  0  0  0  0  0  0  0  0
   98.6680    2.6414    0.4040 H   0  0  0  0  0  0  0  0  0  0  0  0
  100.5860    4.5318    0.5014 H   0  0  0  0  0  0  0  0  0  0  0  0
  103.1759    4.5073    0.2825 H   0  0  0  0  0  0  0  0  0  0  0  0
  105.7667    4.5689    0.0786 H   0  0  0  0  0  0  0  0  0  0  0  0
  107.6905    2.6880   -0.0800 H   0  0  0  0  0  0  0  0  0  0  0  0
  107.6969   -2.5814    0.0246 H   0  0  0  0  0  0  0  0  0  0  0  0
  105.7786   -4.4668   -0.1423 H   0  0  0  0  0  0  0  0  0  0  0  0
  103.1880   -4.4115   -0.3511 H   0  0  0  0  0  0  0  0  0  0  0  0
  114.0980    0.0409   -0.0188 Cu  0  0  0  0  0  0  0  0  0  0  0  0
  111.6081   -3.1057   -1.4262 C   0  0  0  0  0  0  0  0  0  0  0  0
  110.6436   -2.2183   -1.0850 C   0  0  0  0  0  0  0  0  0  0  0  0
  111.3119   -1.0757   -0.5327 C   0  0  0  0  0  0  0  0  0  0  0  0
  110.6480    0.0508   -0.0245 C   0  0  0  0  0  0  0  0  0  0  0  0
  111.3161    1.1738    0.4858 C   0  0  0  0  0  0  0  0  0  0  0  0
  110.6522    2.3207    1.0348 C   0  0  0  0  0  0  0  0  0  0  0  0
  111.6207    3.2020    1.3805 C   0  0  0  0  0  0  0  0  0  0  0  0
  112.8742    2.5874    1.0505 C   0  0  0  0  0  0  0  0  0  0  0  0
  112.6562    1.3536    0.5193 N   0  0  0  0  0  0  0  0  0  0  0  0
  114.1047    3.1911    1.2356 C   0  0  0  0  0  0  0  0  0  0  0  0
  115.3326    2.6205    0.9534 C   0  0  0  0  0  0  0  0  0  0  0  0
  116.5891    3.2888    1.1345 C   0  0  0  0  0  0  0  0  0  0  0  0
  117.5536    2.4072    0.7788 C   0  0  0  0  0  0  0  0  0  0  0  0
  116.8842    1.1998    0.3893 C   0  0  0  0  0  0  0  0  0  0  0  0
  115.5448    1.3585    0.4908 N   0  0  0  0  0  0  0  0  0  0  0  0
  117.5474    0.0325   -0.0168 C   0  0  0  0  0  0  0  0  0  0  0  0
  116.8799   -1.1324   -0.4224 C   0  0  0  0  0  0  0  0  0  0  0  0
  117.5439   -2.3431   -0.8107 C   0  0  0  0  0  0  0  0  0  0  0  0
  116.5753   -3.2206   -1.1658 C   0  0  0  0  0  0  0  0  0  0  0  0
  115.3218   -2.5461   -0.9862 C   0  0  0  0  0  0  0  0  0  0  0  0
  115.5398   -1.2848   -0.5245 N   0  0  0  0  0  0  0  0  0  0  0  0
  114.0914   -3.1100   -1.2709 C   0  0  0  0  0  0  0  0  0  0  0  0
  112.8639   -2.4988   -1.0905 C   0  0  0  0  0  0  0  0  0  0  0  0
  112.6511   -1.2635   -0.5605 N   0  0  0  0  0  0  0  0  0  0  0  0
  111.4980   -4.0775   -1.8670 H   0  0  0  0  0  0  0  0  0  0  0  0
  109.5811   -2.3043   -1.2013 H   0  0  0  0  0  0  0  0  0  0  0  0
  109.5897    2.4135    1.1456 H   0  0  0  0  0  0  0  0  0  0  0  0
  111.5147    4.1747    1.8206 H   0  0  0  0  0  0  0  0  0  0  0  0
  114.1070    4.1953    1.6349 H   0  0  0  0  0  0  0  0  0  0  0  0
  116.6995    4.2974    1.4832 H   0  0  0  0  0  0  0  0  0  0  0  0
  118.6168    2.5461    0.7614 H   0  0  0  0  0  0  0  0  0  0  0  0
  118.6065   -2.4868   -0.7933 H   0  0  0  0  0  0  0  0  0  0  0  0
  116.6810   -4.2300   -1.5136 H   0  0  0  0  0  0  0  0  0  0  0  0
  114.0888   -4.1144   -1.6696 H   0  0  0  0  0  0  0  0  0  0  0  0
  125.0121    0.0401   -0.0195 Cu  0  0  0  0  0  0  0  0  0  0  0  0
  122.5285   -2.4094   -2.4546 C   0  0  0  0  0  0  0  0  0  0  0  0
  121.5617   -1.7149   -1.8089 C   0  0  0  0  0  0  0  0  0  0  0  0
  122.2290   -0.8360   -0.8922 C   0  0  0  0  0  0  0  0  0  0  0  0
  121.5635    0.0361   -0.0184 C   0  0  0  0  0  0  0  0  0  0  0  0
  122.2278    0.9116    0.8532 C   0  0  0  0  0  0  0  0  0  0  0  0
  121.5595    1.7915    1.7680 C   0  0  0  0  0  0  0  0  0  0  0  0
  122.5252    2.4919    2.4090 C   0  0  0  0  0  0  0  0  0  0  0  0
  123.7814    2.0314    1.8909 C   0  0  0  0  0  0  0  0  0  0  0  0
  123.5676    1.0674    0.9546 N   0  0  0  0  0  0  0  0  0  0  0  0
  125.0105    2.5214    2.2936 C   0  0  0  0  0  0  0  0  0  0  0  0
  126.2407    2.0842    1.8374 C   0  0  0  0  0  0  0  0  0  0  0  0
  127.4969    2.6284    2.2673 C   0  0  0  0  0  0  0  0  0  0  0  0
  128.4637    1.9348    1.6206 C   0  0  0  0  0  0  0  0  0  0  0  0
  127.7954    0.9648    0.8014 C   0  0  0  0  0  0  0  0  0  0  0  0
  126.4554    1.0817    0.9428 N   0  0  0  0  0  0  0  0  0  0  0  0
  128.4595    0.0369   -0.0132 C   0  0  0  0  0  0  0  0  0  0  0  0
  127.7961   -0.8892   -0.8304 C   0  0  0  0  0  0  0  0  0  0  0  0
  128.4654   -1.8600   -1.6479 C   0  0  0  0  0  0  0  0  0  0  0  0
  127.4998   -2.5484   -2.3018 C   0  0  0  0  0  0  0  0  0  0  0  0
  126.2432   -2.0015   -1.8765 C   0  0  0  0  0  0  0  0  0  0  0  0
  126.4564   -1.0022   -0.9782 N   0  0  0  0  0  0  0  0  0  0  0  0
  125.0141   -2.4354   -2.3391 C   0  0  0  0  0  0  0  0  0  0  0  0
  123.7841   -1.9477   -1.9362 C   0  0  0  0  0  0  0  0  0  0  0  0
  123.5690   -0.9876   -0.9962 N   0  0  0  0  0  0  0  0  0  0  0  0
  122.4203   -3.1609   -3.2126 H   0  0  0  0  0  0  0  0  0  0  0  0
  120.4983   -1.7677   -1.9364 H   0  0  0  0  0  0  0  0  0  0  0  0
  120.4961    1.8413    1.8976 H   0  0  0  0  0  0  0  0  0  0  0  0
  122.4159    3.2461    3.1641 H   0  0  0  0  0  0  0  0  0  0  0  0
  125.0094    3.3129    3.0295 H   0  0  0  0  0  0  0  0  0  0  0  0
  127.6055    3.4342    2.9673 H   0  0  0  0  0  0  0  0  0  0  0  0
  129.5276    2.0608    1.6693 H   0  0  0  0  0  0  0  0  0  0  0  0
  129.5291   -1.9897   -1.6908 H   0  0  0  0  0  0  0  0  0  0  0  0
  127.6094   -3.3528   -3.0032 H   0  0  0  0  0  0  0  0  0  0  0  0
  125.0148   -3.2237   -3.0784 H   0  0  0  0  0  0  0  0  0  0  0  0
  2  3  2  0  0  0  0
  3  4  1  0  0  0  0
  4  5  4  0  0  0  0
  5  6  4  0  0  0  0
  6  7  1  0  0  0  0
  7  8  2  0  0  0  0
  8  9  1  0  0  0  0
  1 10  1  0  0  0  0
  6 10  4  0  0  0  0
  9 10  4  0  0  0  0
  9 11  4  0  0  0  0
 11 12  4  0  0  0  0
 12 13  1  0  0  0  0
 13 14  2  0  0  0  0
 14 15  1  0  0  0  0
  1 16  1  0  0  0  0
 12 16  4  0  0  0  0
 15 16  4  0  0  0  0
 15 17  4  0  0  0  0
 17 18  4  0  0  0  0
 18 19  1  0  0  0  0
 19 20  2  0  0  0  0
 20 21  1  0  0  0  0
  1 22  1  0  0  0  0
 18 22  4  0  0  0  0
 21 22  4  0  0  0  0
 21 23  4  0  0  0  0
  2 24  1  0  0  0  0
 23 24  4  0  0  0  0
  1 25  1  0  0  0  0
  4 25  4  0  0  0  0
 24 25  4  0  0  0  0
  2 26  1  0  0  0  0
  3 27  1  0  0  0  0
  7 28  1  0  0  0  0
  8 29  1  0  0  0  0
 11 30  1  0  0  0  0
 13 31  1  0  0  0  0
 14 32  1  0  0  0  0
 17 33  1  0  0  0  0
 19 34  1  0  0  0  0
 20 35  1  0  0  0  0
 23 36  1  0  0  0  0
 38 39  2  0  0  0  0
 39 40  1  0  0  0  0
 40 41  4  0  0  0  0
 41 42  4  0  0  0  0
 42 43  1  0  0  0  0
 43 44  2  0  0  0  0
 44 45  1  0  0  0  0
 37 46  1  0  0  0  0
 42 46  4  0  0  0  0
 45 46  4  0  0  0  0
 45 47  4  0  0  0  0
 47 48  4  0  0  0  0
 48 49  1  0  0  0  0
 49 50  2  0  0  0  0
 50 51  1  0  0  0  0
 37 52  1  0  0  0  0
 48 52  4  0  0  0  0
 51 52  4  0  0  0  0
 51 53  4  0  0  0  0
 53 54  4  0  0  0  0
 54 55  1  0  0  0  0
 55 56  2  0  0  0  0
 56 57  1  0  0  0  0
 37 58  1  0  0  0  0
 54 58  4  0  0  0  0
 57 58  4  0  0  0  0
 57 59  4  0  0  0  0
 38 60  1  0  0  0  0
 59 60  4  0  0  0  0
 37 61  1  0  0  0  0
 40 61  4  0  0  0  0
 60 61  4  0  0  0  0
 38 62  1  0  0  0  0
 39 63  1  0  0  0  0
 43 64  1  0  0  0  0
 44 65  1  0  0  0  0
 47 66  1  0  0  0  0
 49 67  1  0  0  0  0
 50 68  1  0  0  0  0
 53 69  1  0  0  0  0
 55 70  1  0  0  0  0
 56 71  1  0  0  0  0
 59 72  1  0  0  0  0
  5 73  1  0  0  0  0
 73 74  3  0  0  0  0
 75 76  3  0  0  0  0
 77 78  3  0  0  0  0
 79 80  3  0  0  0  0
 81 82  3  0  0  0  0
 83 84  3  0  0  0  0
 41 86  1  0  0  0  0
 85 86  3  0  0  0  0
 88 89  2  0  0  0  0
 89 90  1  0  0  0  0
 74 91  1  0  0  0  0
 90 91  4  0  0  0  0
 91 92  4  0  0  0  0
 92 93  1  0  0  0  0
 93 94  2  0  0  0  0
 94 95  1  0  0  0  0
 87 96  1  0  0  0  0
 92 96  4  0  0  0  0
 95 96  4  0  0  0  0
 95 97  4  0  0  0  0
 97 98  4  0  0  0  0
 98 99  1  0  0  0  0
 99100  2  0  0  0  0
100101  1  0  0  0  0
 87102  1  0  0  0  0
 98102  4  0  0  0  0
101102  4  0  0  0  0
 75103  1  0  0  0  0
101103  4  0  0  0  0
103104  4  0  0  0  0
104105  1  0  0  0  0
105106  2  0  0  0  0
106107  1  0  0  0  0
 87108  1  0  0  0  0
104108  4  0  0  0  0
107108  4  0  0  0  0
107109  4  0  0  0  0
 88110  1  0  0  0  0
109110  4  0  0  0  0
 87111  1  0  0  0  0
 90111  4  0  0  0  0
110111  4  0  0  0  0
 88112  1  0  0  0  0
 89113  1  0  0  0  0
 93114  1  0  0  0  0
 94115  1  0  0  0  0
 97116  1  0  0  0  0
 99117  1  0  0  0  0
100118  1  0  0  0  0
105119  1  0  0  0  0
106120  1  0  0  0  0
109121  1  0  0  0  0
123124  2  0  0  0  0
124125  1  0  0  0  0
 76126  1  0  0  0  0
125126  4  0  0  0  0
126127  4  0  0  0  0
127128  1  0  0  0  0
128129  2  0  0  0  0
129130  1  0  0  0  0
122131  1  0  0  0  0
127131  4  0  0  0  0
130131  4  0  0  0  0
130132  4  0  0  0  0
132133  4  0  0  0  0
133134  1  0  0  0  0
134135  2  0  0  0  0
135136  1  0  0  0  0
122137  1  0  0  0  0
133137  4  0  0  0  0
136137  4  0  0  0  0
 77138  1  0  0  0  0
136138  4  0  0  0  0
138139  4  0  0  0  0
139140  1  0  0  0  0
140141  2  0  0  0  0
141142  1  0  0  0  0
122143  1  0  0  0  0
139143  4  0  0  0  0
142143  4  0  0  0  0
142144  4  0  0  0  0
123145  1  0  0  0  0
144145  4  0  0  0  0
122146  1  0  0  0  0
125146  4  0  0  0  0
145146  4  0  0  0  0
123147  1  0  0  0  0
124148  1  0  0  0  0
128149  1  0  0  0  0
129150  1  0  0  0  0
132151  1  0  0  0  0
134152  1  0  0  0  0
135153  1  0  0  0  0
140154  1  0  0  0  0
141155  1  0  0  0  0
144156  1  0  0  0  0
158159  2  0  0  0  0
159160  1  0  0  0  0
 78161  1  0  0  0  0
160161  4  0  0  0  0
161162  4  0  0  0  0
162163  1  0  0  0  0
163164  2  0  0  0  0
164165  1  0  0  0  0
157166  1  0  0  0  0
162166  4  0  0  0  0
165166  4  0  0  0  0
165167  4  0  0  0  0
167168  4  0  0  0  0
168169  1  0  0  0  0
169170  2  0  0  0  0
170171  1  0  0  0  0
157172  1  0  0  0  0
168172  4  0  0  0  0
171172  4  0  0  0  0
 79173  1  0  0  0  0
171173  4  0  0  0  0
173174  4  0  0  0  0
174175  1  0  0  0  0
175176  2  0  0  0  0
176177  1  0  0  0  0
157178  1  0  0  0  0
174178  4  0  0  0  0
177178  4  0  0  0  0
177179  4  0  0  0  0
158180  1  0  0  0  0
179180  4  0  0  0  0
157181  1  0  0  0  0
160181  4  0  0  0  0
180181  4  0  0  0  0
158182  1  0  0  0  0
159183  1  0  0  0  0
163184  1  0  0  0  0
164185  1  0  0  0  0
167186  1  0  0  0  0
169187  1  0  0  0  0
170188  1  0  0  0  0
175189  1  0  0  0  0
176190  1  0  0  0  0
179191  1  0  0  0  0
193194  2  0  0  0  0
194195  1  0  0  0  0
 80196  1  0  0  0  0
195196  4  0  0  0  0
196197  4  0  0  0  0
197198  1  0  0  0  0
198199  2  0  0  0  0
199200  1  0  0  0  0
192201  1  0  0  0  0
197201  4  0  0  0  0
200201  4  0  0  0  0
200202  4  0  0  0  0
202203  4  0  0  0  0
203204  1  0  0  0  0
204205  2  0  0  0  0
205206  1  0  0  0  0
192207  1  0  0  0  0
203207  4  0  0  0  0
206207  4  0  0  0  0
 81208  1  0  0  0  0
206208  4  0  0  0  0
208209  4  0  0  0  0
209210  1  0  0  0  0
210211  2  0  0  0  0
211212  1  0  0  0  0
192213  1  0  0  0  0
209213  4  0  0  0  0
212213  4  0  0  0  0
212214  4  0  0  0  0
193215  1  0  0  0  0
214215  4  0  0  0  0
192216  1  0  0  0  0
195216  4  0  0  0  0
215216  4  0  0  0  0
193217  1  0  0  0  0
194218  1  0  0  0  0
198219  1  0  0  0  0
199220  1  0  0  0  0
202221  1  0  0  0  0
204222  1  0  0  0  0
205223  1  0  0  0  0
210224  1  0  0  0  0
211225  1  0  0  0  0
214226  1  0  0  0  0
228229  2  0  0  0  0
229230  1  0  0  0  0
 82231  1  0  0  0  0
230231  4  0  0  0  0
231232  4  0  0  0  0
232233  1  0  0  0  0
233234  2  0  0  0  0
234235  1  0  0  0  0
227236  1  0  0  0  0
232236  4  0  0  0  0
235236  4  0  0  0  0
235237  4  0  0  0  0
237238  4  0  0  0  0
238239  1  0  0  0  0
239240  2  0  0  0  0
240241  1  0  0  0  0
227242  1  0  0  0  0
238242  4  0  0  0  0
241242  4  0  0  0  0
 83243  1  0  0  0  0
241243  4  0  0  0  0
243244  4  0  0  0  0
244245  1  0  0  0  0
245246  2  0  0  0  0
246247  1  0  0  0  0
227248  1  0  0  0  0
244248  4  0  0  0  0
247248  4  0  0  0  0
247249  4  0  0  0  0
228250  1  0  0  0  0
249250  4  0  0  0  0
227251  1  0  0  0  0
230251  4  0  0  0  0
250251  4  0  0  0  0
228252  1  0  0  0  0
229253  1  0  0  0  0
233254  1  0  0  0  0
234255  1  0  0  0  0
237256  1  0  0  0  0
239257  1  0  0  0  0
240258  1  0  0  0  0
245259  1  0  0  0  0
246260  1  0  0  0  0
249261  1  0  0  0  0
263264  2  0  0  0  0
264265  1  0  0  0  0
 84266  1  0  0  0  0
265266  4  0  0  0  0
266267  4  0  0  0  0
267268  1  0  0  0  0
268269  2  0  0  0  0
269270  1  0  0  0  0
262271  1  0  0  0  0
267271  4  0  0  0  0
270271  4  0  0  0  0
270272  4  0  0  0  0
272273  4  0  0  0  0
273274  1  0  0  0  0
274275  2  0  0  0  0
275276  1  0  0  0  0
262277  1  0  0  0  0
273277  4  0  0  0  0
276277  4  0  0  0  0
 85278  1  0  0  0  0
276278  4  0  0  0  0
278279  4  0  0  0  0
279280  1  0  0  0  0
280281  2  0  0  0  0
281282  1  0  0  0  0
262283  1  0  0  0  0
279283  4  0  0  0  0
282283  4  0  0  0  0
282284  4  0  0  0  0
263285  1  0  0  0  0
284285  4  0  0  0  0
262286  1  0  0  0  0
265286  4  0  0  0  0
285286  4  0  0  0  0
263287  1  0  0  0  0
264288  1  0  0  0  0
268289  1  0  0  0  0
269290  1  0  0  0  0
272291  1  0  0  0  0
274292  1  0  0  0  0
275293  1  0  0  0  0
280294  1  0  0  0  0
281295  1  0  0  0  0
284296  1  0  0  0  0
M  END
