115

Fe 14.300747 -0.001312 -0.009165
C 16.805553 -3.386858 0.025600
C 17.795809 -2.463808 0.023756
C 17.152572 -1.185713 0.012356
C 17.826164 0.039573 0.007487
C 17.124466 1.248757 0.000741
C 17.738213 2.541217 0.003171
C 16.726980 3.441224 -0.001304
C 15.503248 2.692514 -0.007634
N 15.767497 1.347993 -0.005435
C 14.260558 3.295335 -0.017348
C 13.033716 2.661390 -0.027145
C 11.789337 3.379509 -0.041119
C 10.803230 2.454684 -0.048239
C 11.448176 1.173740 -0.037942
N 12.805724 1.313125 -0.025761
C 10.792383 -0.041304 -0.038445
C 11.476083 -1.240801 -0.025771
C 10.860625 -2.536216 -0.022636
C 11.867628 -3.438131 -0.008196
C 13.095258 -2.691648 -0.002889
N 12.836511 -1.348945 -0.013564
C 14.336232 -3.297408 0.010373
C 15.564939 -2.666424 0.014434
N 15.798245 -1.316145 0.006725
H 16.887848 -4.456630 0.033518
H 18.858271 -2.611324 0.029730
H 18.797115 2.712931 0.008486
H 16.784524 4.512636 -0.000789
H 14.248026 4.376123 -0.018689
H 11.706022 4.449418 -0.044982
H 9.740640 2.602661 -0.058878
H 9.713542 -0.053866 -0.047998
H 9.801682 -2.708503 -0.030505
H 11.808865 -4.509658 -0.001775
H 14.348330 -4.378181 0.017345
Fe 41.550493 0.030829 -0.006801
C 39.055466 3.366305 0.616598
C 38.062507 2.461576 0.448977
C 38.702178 1.202586 0.217236
C 38.025023 -0.001999 0.004014
C 38.723011 -1.194083 -0.210403
C 38.105521 -2.465132 -0.434705
C 39.114031 -3.352148 -0.604040
C 40.339981 -2.616787 -0.482909
N 40.079750 -1.293612 -0.239848
C 41.580849 -3.210386 -0.607933
C 42.809475 -2.587633 -0.508799
C 44.051648 -3.293953 -0.658435
C 45.040480 -2.385986 -0.498505
C 44.399402 -1.127181 -0.251115
N 43.041447 -1.262893 -0.261668
C 45.058911 0.065071 -0.027571
C 44.378833 1.243872 0.205361
C 44.998094 2.514662 0.447238
C 43.993694 3.402486 0.622305
C 42.763842 2.672117 0.486590
N 43.018693 1.352756 0.233264
C 41.524635 3.270788 0.601078
C 40.294053 2.654232 0.485150
N 40.056883 1.327224 0.239200
H 38.976264 4.418324 0.811721
H 37.000486 2.609519 0.477395
H 37.046084 -2.632636 -0.456279
H 39.053285 -4.406433 -0.794469
H 41.590238 -4.273141 -0.804716
H 44.131777 -4.345150 -0.858942
H 46.102587 -2.532096 -0.539326
H 46.137791 0.075800 -0.034474
H 46.057564 2.681644 0.474620
H 44.055539 4.454639 0.824247
H 41.515731 4.332933 0.801139
C 19.222574 0.054547 0.009489
C 20.440212 0.063540 0.008379
C 21.782602 0.067044 0.007300
C 23.000366 0.065325 0.003874
C 32.850590 -0.017226 -0.003435
C 34.068267 -0.021656 -0.000394
C 35.410788 -0.020768 0.001928
C 36.628378 -0.012707 0.004105
Fe 27.925370 0.023378 -0.007158
C 25.428626 -3.346202 0.387361
C 24.435266 -2.431467 0.290420
C 25.074320 -1.160172 0.140104
C 24.396292 0.055108 0.001222
C 25.095256 1.257662 -0.143327
C 24.478554 2.539420 -0.297223
C 25.487887 3.435286 -0.404957
C 26.712821 2.694628 -0.315476
N 26.451411 1.358779 -0.156675
C 27.953977 3.296463 -0.381704
C 29.184592 2.674814 -0.304442
C 30.422454 3.395617 -0.380109
C 31.415763 2.481951 -0.273286
C 30.776618 1.209428 -0.133878
N 29.422462 1.333733 -0.152606
C 31.454477 -0.007065 -0.005873
C 30.755545 -1.211969 0.117477
C 31.372308 -2.496403 0.248310
C 30.363003 -3.393221 0.347878
C 29.138047 -2.650408 0.277486
N 29.399417 -1.312789 0.134078
C 27.896902 -3.251044 0.353643
C 26.666375 -2.627124 0.295989
N 26.428417 -1.285848 0.145778
H 25.350185 -4.409336 0.509185
H 23.373273 -2.580400 0.315423
H 23.419353 2.707383 -0.317844
H 25.428299 4.498749 -0.533244
H 27.963157 4.370137 -0.506464
H 30.501015 4.459060 -0.499557
H 32.477828 2.632213 -0.286758
H 32.431448 -2.665276 0.260587
H 30.422635 -4.458584 0.459089
H 27.887641 -4.325509 0.471398
