
  xtb     11212119093D
 xtb: 6.4.1 (bd6e46d)
152171  0     0  0            999 V2000
   30.0018    3.3434    0.8091 C   0  0  0  0  0  0  0  0  0  0  0  0
   30.9620    2.4180    0.6172 C   0  0  0  0  0  0  0  0  0  0  0  0
   30.2716    1.1928    0.2572 C   0  0  0  0  0  0  0  0  0  0  0  0
   30.9409   -0.0119   -0.0357 C   0  0  0  0  0  0  0  0  0  0  0  0
   30.2935   -1.2177   -0.3496 C   0  0  0  0  0  0  0  0  0  0  0  0
   30.8976   -2.4609   -0.6770 C   0  0  0  0  0  0  0  0  0  0  0  0
   29.8948   -3.3588   -0.9036 C   0  0  0  0  0  0  0  0  0  0  0  0
   28.6556   -2.6819   -0.7256 C   0  0  0  0  0  0  0  0  0  0  0  0
   28.9490   -1.3939   -0.3948 N   0  0  0  0  0  0  0  0  0  0  0  0
   27.3889   -3.2302   -0.8642 C   0  0  0  0  0  0  0  0  0  0  0  0
   26.1691   -2.5835   -0.7226 C   0  0  0  0  0  0  0  0  0  0  0  0
   24.8939   -3.2645   -0.8952 C   0  0  0  0  0  0  0  0  0  0  0  0
   23.9414   -2.3336   -0.7018 C   0  0  0  0  0  0  0  0  0  0  0  0
   24.6421   -1.0918   -0.4130 C   0  0  0  0  0  0  0  0  0  0  0  0
   25.9785   -1.2804   -0.4302 N   0  0  0  0  0  0  0  0  0  0  0  0
   23.9925    0.1105   -0.1635 C   0  0  0  0  0  0  0  0  0  0  0  0
   24.6157    1.3164    0.1184 C   0  0  0  0  0  0  0  0  0  0  0  0
   24.0087    2.5763    0.3880 C   0  0  0  0  0  0  0  0  0  0  0  0
   25.0076    3.4742    0.6227 C   0  0  0  0  0  0  0  0  0  0  0  0
   26.2505    2.7867    0.5022 C   0  0  0  0  0  0  0  0  0  0  0  0
   25.9615    1.4948    0.1952 N   0  0  0  0  0  0  0  0  0  0  0  0
   27.5167    3.3246    0.6777 C   0  0  0  0  0  0  0  0  0  0  0  0
   28.7357    2.6717    0.5708 C   0  0  0  0  0  0  0  0  0  0  0  0
   28.9400    1.3726    0.2457 N   0  0  0  0  0  0  0  0  0  0  0  0
   30.1037    4.3749    1.0870 H   0  0  0  0  0  0  0  0  0  0  0  0
   32.0254    2.5133    0.7172 H   0  0  0  0  0  0  0  0  0  0  0  0
   31.9546   -2.6293   -0.7405 H   0  0  0  0  0  0  0  0  0  0  0  0
   29.9935   -4.3923   -1.1732 H   0  0  0  0  0  0  0  0  0  0  0  0
   28.2763   -0.6584   -0.2116 H   0  0  0  0  0  0  0  0  0  0  0  0
   27.3509   -4.2807   -1.1176 H   0  0  0  0  0  0  0  0  0  0  0  0
   24.7853   -4.3061   -1.1300 H   0  0  0  0  0  0  0  0  0  0  0  0
   22.8739   -2.4372   -0.7422 H   0  0  0  0  0  0  0  0  0  0  0  0
   22.9125    0.1058   -0.1902 H   0  0  0  0  0  0  0  0  0  0  0  0
   22.9512    2.7561    0.3988 H   0  0  0  0  0  0  0  0  0  0  0  0
   24.9076    4.5160    0.8587 H   0  0  0  0  0  0  0  0  0  0  0  0
   26.6327    0.7516    0.0427 H   0  0  0  0  0  0  0  0  0  0  0  0
   27.5571    4.3747    0.9329 H   0  0  0  0  0  0  0  0  0  0  0  0
   58.0374   -3.4287   -0.4035 C   0  0  0  0  0  0  0  0  0  0  0  0
   57.0663   -2.5024   -0.2851 C   0  0  0  0  0  0  0  0  0  0  0  0
   57.7458   -1.2307   -0.1129 C   0  0  0  0  0  0  0  0  0  0  0  0
   57.0650   -0.0077    0.0371 C   0  0  0  0  0  0  0  0  0  0  0  0
   57.6942    1.2383    0.1842 C   0  0  0  0  0  0  0  0  0  0  0  0
   57.0687    2.5007    0.3689 C   0  0  0  0  0  0  0  0  0  0  0  0
   58.0563    3.4366    0.4784 C   0  0  0  0  0  0  0  0  0  0  0  0
   59.3067    2.7658    0.3665 C   0  0  0  0  0  0  0  0  0  0  0  0
   59.0353    1.4430    0.1908 N   0  0  0  0  0  0  0  0  0  0  0  0
   60.5649    3.3462    0.4281 C   0  0  0  0  0  0  0  0  0  0  0  0
   61.7925    2.7051    0.3370 C   0  0  0  0  0  0  0  0  0  0  0  0
   63.0596    3.4175    0.4168 C   0  0  0  0  0  0  0  0  0  0  0  0
   64.0230    2.4856    0.2961 C   0  0  0  0  0  0  0  0  0  0  0  0
   63.3369    1.2117    0.1438 C   0  0  0  0  0  0  0  0  0  0  0  0
   61.9983    1.3820    0.1721 N   0  0  0  0  0  0  0  0  0  0  0  0
   64.0016    0.0014   -0.0081 C   0  0  0  0  0  0  0  0  0  0  0  0
   63.3961   -1.2371   -0.1543 C   0  0  0  0  0  0  0  0  0  0  0  0
   64.0235   -2.5053   -0.3188 C   0  0  0  0  0  0  0  0  0  0  0  0
   63.0392   -3.4426   -0.4257 C   0  0  0  0  0  0  0  0  0  0  0  0
   61.7849   -2.7721   -0.3288 C   0  0  0  0  0  0  0  0  0  0  0  0
   62.0531   -1.4497   -0.1662 N   0  0  0  0  0  0  0  0  0  0  0  0
   60.5264   -3.3512   -0.3922 C   0  0  0  0  0  0  0  0  0  0  0  0
   59.2980   -2.7126   -0.3055 C   0  0  0  0  0  0  0  0  0  0  0  0
   59.0804   -1.3874   -0.1315 N   0  0  0  0  0  0  0  0  0  0  0  0
   57.9463   -4.4884   -0.5465 H   0  0  0  0  0  0  0  0  0  0  0  0
   56.0013   -2.6268   -0.3196 H   0  0  0  0  0  0  0  0  0  0  0  0
   56.0088    2.6556    0.4214 H   0  0  0  0  0  0  0  0  0  0  0  0
   57.9404    4.4926    0.6268 H   0  0  0  0  0  0  0  0  0  0  0  0
   59.7218    0.7051    0.0855 H   0  0  0  0  0  0  0  0  0  0  0  0
   60.5889    4.4184    0.5657 H   0  0  0  0  0  0  0  0  0  0  0  0
   63.1558    4.4786    0.5468 H   0  0  0  0  0  0  0  0  0  0  0  0
   65.0892    2.6076    0.3051 H   0  0  0  0  0  0  0  0  0  0  0  0
   65.0818    0.0269   -0.0136 H   0  0  0  0  0  0  0  0  0  0  0  0
   65.0841   -2.6634   -0.3504 H   0  0  0  0  0  0  0  0  0  0  0  0
   63.1562   -4.5005   -0.5597 H   0  0  0  0  0  0  0  0  0  0  0  0
   61.3682   -0.7103   -0.0661 H   0  0  0  0  0  0  0  0  0  0  0  0
   60.5008   -4.4236   -0.5289 H   0  0  0  0  0  0  0  0  0  0  0  0
   32.3412   -0.0114   -0.0164 C   0  0  0  0  0  0  0  0  0  0  0  0
   33.5548    0.0142    0.0018 C   0  0  0  0  0  0  0  0  0  0  0  0
   43.4054   -0.0091    0.0587 C   0  0  0  0  0  0  0  0  0  0  0  0
   44.6196    0.0093    0.0489 C   0  0  0  0  0  0  0  0  0  0  0  0
   54.4508   -0.0415    0.0364 C   0  0  0  0  0  0  0  0  0  0  0  0
   55.6639   -0.0254    0.0395 C   0  0  0  0  0  0  0  0  0  0  0  0
   35.9483   -3.3638    0.6361 C   0  0  0  0  0  0  0  0  0  0  0  0
   34.9698   -2.4487    0.4920 C   0  0  0  0  0  0  0  0  0  0  0  0
   35.6377   -1.1855    0.2413 C   0  0  0  0  0  0  0  0  0  0  0  0
   34.9539    0.0258    0.0178 C   0  0  0  0  0  0  0  0  0  0  0  0
   35.6041    1.2539   -0.1886 C   0  0  0  0  0  0  0  0  0  0  0  0
   35.0162    2.5206   -0.4406 C   0  0  0  0  0  0  0  0  0  0  0  0
   36.0312    3.4269   -0.5558 C   0  0  0  0  0  0  0  0  0  0  0  0
   37.2603    2.7309   -0.3838 C   0  0  0  0  0  0  0  0  0  0  0  0
   36.9502    1.4228   -0.1706 N   0  0  0  0  0  0  0  0  0  0  0  0
   38.5284    3.2948   -0.4184 C   0  0  0  0  0  0  0  0  0  0  0  0
   39.7563    2.6672   -0.2855 C   0  0  0  0  0  0  0  0  0  0  0  0
   41.0103    3.4005   -0.3217 C   0  0  0  0  0  0  0  0  0  0  0  0
   41.9884    2.4839   -0.1852 C   0  0  0  0  0  0  0  0  0  0  0  0
   41.3211    1.2006   -0.0732 C   0  0  0  0  0  0  0  0  0  0  0  0
   39.9861    1.3417   -0.1249 N   0  0  0  0  0  0  0  0  0  0  0  0
   42.0070   -0.0228    0.0660 C   0  0  0  0  0  0  0  0  0  0  0  0
   41.3573   -1.2599    0.2132 C   0  0  0  0  0  0  0  0  0  0  0  0
   41.9454   -2.5449    0.3420 C   0  0  0  0  0  0  0  0  0  0  0  0
   40.9301   -3.4477    0.4803 C   0  0  0  0  0  0  0  0  0  0  0  0
   39.7004   -2.7334    0.4313 C   0  0  0  0  0  0  0  0  0  0  0  0
   40.0108   -1.4186    0.2640 N   0  0  0  0  0  0  0  0  0  0  0  0
   38.4317   -3.2853    0.5445 C   0  0  0  0  0  0  0  0  0  0  0  0
   37.2030   -2.6482    0.4769 C   0  0  0  0  0  0  0  0  0  0  0  0
   36.9735   -1.3330    0.2483 N   0  0  0  0  0  0  0  0  0  0  0  0
   35.8656   -4.4153    0.8335 H   0  0  0  0  0  0  0  0  0  0  0  0
   33.9070   -2.5753    0.5583 H   0  0  0  0  0  0  0  0  0  0  0  0
   33.9633    2.7009   -0.5324 H   0  0  0  0  0  0  0  0  0  0  0  0
   35.9466    4.4792   -0.7457 H   0  0  0  0  0  0  0  0  0  0  0  0
   37.5962    0.6549   -0.0208 H   0  0  0  0  0  0  0  0  0  0  0  0
   38.5585    4.3652   -0.5719 H   0  0  0  0  0  0  0  0  0  0  0  0
   41.0927    4.4647   -0.4325 H   0  0  0  0  0  0  0  0  0  0  0  0
   43.0504    2.6259   -0.1433 H   0  0  0  0  0  0  0  0  0  0  0  0
   42.9987   -2.7425    0.3176 H   0  0  0  0  0  0  0  0  0  0  0  0
   41.0151   -4.5101    0.6014 H   0  0  0  0  0  0  0  0  0  0  0  0
   39.3634   -0.6420    0.1800 H   0  0  0  0  0  0  0  0  0  0  0  0
   38.4013   -4.3549    0.7040 H   0  0  0  0  0  0  0  0  0  0  0  0
   47.0019   -3.0174    1.6732 C   0  0  0  0  0  0  0  0  0  0  0  0
   46.0283   -2.1812    1.2634 C   0  0  0  0  0  0  0  0  0  0  0  0
   46.7010   -1.0682    0.6202 C   0  0  0  0  0  0  0  0  0  0  0  0
   46.0183    0.0195    0.0395 C   0  0  0  0  0  0  0  0  0  0  0  0
   46.6670    1.1153   -0.5541 C   0  0  0  0  0  0  0  0  0  0  0  0
   46.0748    2.2363   -1.1920 C   0  0  0  0  0  0  0  0  0  0  0  0
   47.0870    3.0493   -1.6154 C   0  0  0  0  0  0  0  0  0  0  0  0
   48.3191    2.4387   -1.2499 C   0  0  0  0  0  0  0  0  0  0  0  0
   48.0130    1.2741   -0.6145 N   0  0  0  0  0  0  0  0  0  0  0  0
   49.5877    2.9426   -1.5018 C   0  0  0  0  0  0  0  0  0  0  0  0
   50.8148    2.3779   -1.1924 C   0  0  0  0  0  0  0  0  0  0  0  0
   52.0737    3.0202   -1.5310 C   0  0  0  0  0  0  0  0  0  0  0  0
   53.0478    2.1932   -1.1035 C   0  0  0  0  0  0  0  0  0  0  0  0
   52.3721    1.0553   -0.5078 C   0  0  0  0  0  0  0  0  0  0  0  0
   51.0369    1.1937   -0.5737 N   0  0  0  0  0  0  0  0  0  0  0  0
   53.0506   -0.0512    0.0377 C   0  0  0  0  0  0  0  0  0  0  0  0
   52.4032   -1.1706    0.5843 C   0  0  0  0  0  0  0  0  0  0  0  0
   52.9984   -2.3189    1.1694 C   0  0  0  0  0  0  0  0  0  0  0  0
   51.9866   -3.1361    1.5858 C   0  0  0  0  0  0  0  0  0  0  0  0
   50.7533   -2.5015    1.2678 C   0  0  0  0  0  0  0  0  0  0  0  0
   51.0572   -1.3215    0.6614 N   0  0  0  0  0  0  0  0  0  0  0  0
   49.4847   -2.9900    1.5489 C   0  0  0  0  0  0  0  0  0  0  0  0
   48.2587   -2.4018    1.2827 C   0  0  0  0  0  0  0  0  0  0  0  0
   48.0351   -1.2225    0.6540 N   0  0  0  0  0  0  0  0  0  0  0  0
   46.9148   -3.9531    2.1913 H   0  0  0  0  0  0  0  0  0  0  0  0
   44.9660   -2.2663    1.3825 H   0  0  0  0  0  0  0  0  0  0  0  0
   45.0203    2.3835   -1.3175 H   0  0  0  0  0  0  0  0  0  0  0  0
   46.9985    3.9829   -2.1360 H   0  0  0  0  0  0  0  0  0  0  0  0
   48.6671    0.5974   -0.2368 H   0  0  0  0  0  0  0  0  0  0  0  0
   49.6196    3.8960   -2.0118 H   0  0  0  0  0  0  0  0  0  0  0  0
   52.1619    3.9671   -2.0282 H   0  0  0  0  0  0  0  0  0  0  0  0
   54.1124    2.3009   -1.1800 H   0  0  0  0  0  0  0  0  0  0  0  0
   54.0544   -2.4803    1.2639 H   0  0  0  0  0  0  0  0  0  0  0  0
   52.0761   -4.0878    2.0723 H   0  0  0  0  0  0  0  0  0  0  0  0
   50.4034   -0.6284    0.3141 H   0  0  0  0  0  0  0  0  0  0  0  0
   49.4523   -3.9486    2.0487 H   0  0  0  0  0  0  0  0  0  0  0  0
  1  2  2  0  0  0  0
  2  3  1  0  0  0  0
  3  4  4  0  0  0  0
  4  5  4  0  0  0  0
  5  6  4  0  0  0  0
  6  7  2  0  0  0  0
  7  8  4  0  0  0  0
  5  9  4  0  0  0  0
  8  9  4  0  0  0  0
  8 10  4  0  0  0  0
 10 11  4  0  0  0  0
 11 12  1  0  0  0  0
 12 13  2  0  0  0  0
 13 14  1  0  0  0  0
 11 15  4  0  0  0  0
 14 15  4  0  0  0  0
 14 16  4  0  0  0  0
 16 17  4  0  0  0  0
 17 18  4  0  0  0  0
 18 19  2  0  0  0  0
 19 20  4  0  0  0  0
 17 21  4  0  0  0  0
 20 21  4  0  0  0  0
 20 22  4  0  0  0  0
  1 23  1  0  0  0  0
 22 23  4  0  0  0  0
  3 24  4  0  0  0  0
 23 24  4  0  0  0  0
  1 25  1  0  0  0  0
  2 26  1  0  0  0  0
  6 27  1  0  0  0  0
  7 28  1  0  0  0  0
  9 29  1  0  0  0  0
 10 30  1  0  0  0  0
 12 31  1  0  0  0  0
 13 32  1  0  0  0  0
 16 33  1  0  0  0  0
 18 34  1  0  0  0  0
 19 35  1  0  0  0  0
 21 36  1  0  0  0  0
 22 37  1  0  0  0  0
 38 39  2  0  0  0  0
 39 40  1  0  0  0  0
 40 41  4  0  0  0  0
 41 42  4  0  0  0  0
 42 43  4  0  0  0  0
 43 44  2  0  0  0  0
 44 45  4  0  0  0  0
 42 46  4  0  0  0  0
 45 46  4  0  0  0  0
 45 47  4  0  0  0  0
 47 48  4  0  0  0  0
 48 49  1  0  0  0  0
 49 50  2  0  0  0  0
 50 51  1  0  0  0  0
 48 52  4  0  0  0  0
 51 52  4  0  0  0  0
 51 53  4  0  0  0  0
 53 54  4  0  0  0  0
 54 55  4  0  0  0  0
 55 56  2  0  0  0  0
 56 57  4  0  0  0  0
 54 58  4  0  0  0  0
 57 58  4  0  0  0  0
 57 59  4  0  0  0  0
 38 60  1  0  0  0  0
 59 60  4  0  0  0  0
 40 61  4  0  0  0  0
 60 61  4  0  0  0  0
 38 62  1  0  0  0  0
 39 63  1  0  0  0  0
 43 64  1  0  0  0  0
 44 65  1  0  0  0  0
 46 66  1  0  0  0  0
 47 67  1  0  0  0  0
 49 68  1  0  0  0  0
 50 69  1  0  0  0  0
 53 70  1  0  0  0  0
 55 71  1  0  0  0  0
 56 72  1  0  0  0  0
 58 73  1  0  0  0  0
 59 74  1  0  0  0  0
  4 75  1  0  0  0  0
 75 76  3  0  0  0  0
 77 78  3  0  0  0  0
 41 80  1  0  0  0  0
 79 80  3  0  0  0  0
 81 82  2  0  0  0  0
 82 83  1  0  0  0  0
 76 84  1  0  0  0  0
 83 84  4  0  0  0  0
 84 85  4  0  0  0  0
 85 86  4  0  0  0  0
 86 87  2  0  0  0  0
 87 88  4  0  0  0  0
 85 89  4  0  0  0  0
 88 89  4  0  0  0  0
 88 90  4  0  0  0  0
 90 91  4  0  0  0  0
 91 92  1  0  0  0  0
 92 93  2  0  0  0  0
 93 94  1  0  0  0  0
 91 95  4  0  0  0  0
 94 95  4  0  0  0  0
 77 96  1  0  0  0  0
 94 96  4  0  0  0  0
 96 97  4  0  0  0  0
 97 98  4  0  0  0  0
 98 99  2  0  0  0  0
 99100  4  0  0  0  0
 97101  4  0  0  0  0
100101  4  0  0  0  0
100102  4  0  0  0  0
 81103  1  0  0  0  0
102103  4  0  0  0  0
 83104  4  0  0  0  0
103104  4  0  0  0  0
 81105  1  0  0  0  0
 82106  1  0  0  0  0
 86107  1  0  0  0  0
 87108  1  0  0  0  0
 89109  1  0  0  0  0
 90110  1  0  0  0  0
 92111  1  0  0  0  0
 93112  1  0  0  0  0
 98113  1  0  0  0  0
 99114  1  0  0  0  0
101115  1  0  0  0  0
102116  1  0  0  0  0
117118  2  0  0  0  0
118119  1  0  0  0  0
 78120  1  0  0  0  0
119120  4  0  0  0  0
120121  4  0  0  0  0
121122  4  0  0  0  0
122123  2  0  0  0  0
123124  4  0  0  0  0
121125  4  0  0  0  0
124125  4  0  0  0  0
124126  4  0  0  0  0
126127  4  0  0  0  0
127128  1  0  0  0  0
128129  2  0  0  0  0
129130  1  0  0  0  0
127131  4  0  0  0  0
130131  4  0  0  0  0
 79132  1  0  0  0  0
130132  4  0  0  0  0
132133  4  0  0  0  0
133134  4  0  0  0  0
134135  2  0  0  0  0
135136  4  0  0  0  0
133137  4  0  0  0  0
136137  4  0  0  0  0
136138  4  0  0  0  0
117139  1  0  0  0  0
138139  4  0  0  0  0
119140  4  0  0  0  0
139140  4  0  0  0  0
117141  1  0  0  0  0
118142  1  0  0  0  0
122143  1  0  0  0  0
123144  1  0  0  0  0
125145  1  0  0  0  0
126146  1  0  0  0  0
128147  1  0  0  0  0
129148  1  0  0  0  0
134149  1  0  0  0  0
135150  1  0  0  0  0
137151  1  0  0  0  0
138152  1  0  0  0  0
M  END
