119

Co 11.947627 -0.006183 -0.011325
C 14.441960 -3.415833 0.093488
C 15.394318 -2.455882 0.093439
C 14.704715 -1.203092 0.040541
C 15.369741 0.024092 -0.002708
C 14.683454 1.239476 -0.044538
C 15.351116 2.504446 -0.087398
C 14.382048 3.447520 -0.083812
C 13.133933 2.748263 -0.040412
N 13.329512 1.391979 -0.024863
C 11.914950 3.389531 -0.000051
C 10.708941 2.724294 0.032542
C 9.443557 3.397241 0.072393
C 8.496665 2.434358 0.060778
C 9.190965 1.180458 0.014678
N 10.544719 1.367292 0.006278
C 8.545436 -0.036276 -0.035091
C 9.212919 -1.241540 -0.072601
C 8.541561 -2.507692 -0.123401
C 9.505260 -3.453784 -0.114383
C 10.757856 -2.758418 -0.058821
N 10.569447 -1.404432 -0.042481
C 11.974923 -3.401972 -0.007263
C 13.181972 -2.738949 0.039670
N 13.353753 -1.379525 0.016395
H 14.559267 -4.481525 0.124422
H 16.461317 -2.560973 0.124435
H 16.416244 2.628476 -0.113273
H 14.480761 4.515335 -0.106725
H 11.905828 4.468901 0.003836
H 9.323849 4.462938 0.102492
H 7.428863 2.536105 0.079530
H 7.466240 -0.045748 -0.043490
H 7.476143 -2.628373 -0.158416
H 9.404768 -4.521562 -0.140612
H 11.984923 -4.481338 -0.004732
Co 43.903132 0.026068 -0.008183
C 41.418216 3.367053 0.713617
C 40.463097 2.426557 0.535555
C 41.149234 1.202373 0.255508
C 40.481080 0.004900 -0.008107
C 41.164125 -1.185934 -0.263277
C 40.493029 -2.421340 -0.530199
C 41.459435 -3.353281 -0.691386
C 42.709427 -2.676514 -0.523526
N 42.517612 -1.343675 -0.269109
C 43.926581 -3.318409 -0.596201
C 45.134446 -2.672282 -0.449148
C 46.398089 -3.344570 -0.532037
C 47.347594 -2.396376 -0.379528
C 46.656606 -1.152292 -0.202813
N 45.302329 -1.331999 -0.238096
C 47.305214 0.052932 -0.040408
C 46.640883 1.246738 0.141484
C 47.315542 2.499915 0.317107
C 46.354633 3.430277 0.504104
C 45.100349 2.738750 0.439300
N 45.284985 1.404012 0.208176
C 43.885285 3.364749 0.611986
C 42.676386 2.707527 0.538352
N 42.500777 1.375885 0.266480
H 41.303863 4.409344 0.939413
H 39.396342 2.527664 0.583686
H 39.427629 -2.535415 -0.579611
H 41.357820 -4.399899 -0.902875
H 43.932698 -4.381710 -0.781914
H 46.514963 -4.399411 -0.688878
H 48.415167 -2.502086 -0.383151
H 48.384380 0.061746 -0.052582
H 48.381091 2.623025 0.298178
H 46.458058 4.484835 0.671881
H 43.878354 4.425466 0.811909
C 16.766714 0.035748 -0.003102
C 17.986029 0.045033 -0.005449
C 19.322591 0.051800 -0.006269
C 20.546410 0.058464 -0.008229
C 21.882847 0.058151 -0.009832
C 23.102367 0.056712 -0.009452
C 32.748202 -0.013939 -0.023187
C 33.967673 -0.017296 -0.023534
C 35.304211 -0.017667 -0.023424
C 36.527986 -0.014537 -0.019956
C 37.864652 -0.009221 -0.016933
C 39.083955 -0.002981 -0.012291
Co 27.925283 0.022414 -0.007198
C 25.432478 -3.368592 0.391615
C 24.478276 -2.416769 0.281553
C 25.166443 -1.170875 0.133669
C 24.498731 0.047738 -0.007903
C 25.184240 1.256710 -0.145565
C 24.514526 2.513283 -0.287469
C 25.482678 3.451872 -0.389224
C 26.731353 2.757543 -0.309160
N 26.537610 1.409001 -0.160154
C 27.950167 3.395669 -0.376157
C 29.159362 2.740036 -0.304116
C 30.418189 3.416481 -0.377944
C 31.372342 2.463443 -0.278595
C 30.684112 1.215988 -0.144709
N 29.333128 1.388237 -0.159841
C 31.351725 -0.004363 -0.019344
C 30.666268 -1.213891 0.113057
C 31.335976 -2.471336 0.247280
C 30.367865 -3.408572 0.360987
C 29.119216 -2.712812 0.293862
N 29.312925 -1.364751 0.140583
C 27.900456 -3.349168 0.376815
C 26.691257 -2.693151 0.308566
N 26.517405 -1.342796 0.151358
H 25.317226 -4.427629 0.516410
H 23.411087 -2.523025 0.296415
H 23.448974 2.635071 -0.303582
H 25.383170 4.513277 -0.507402
H 27.958184 4.468815 -0.492712
H 30.533523 4.476810 -0.491157
H 32.439538 2.569844 -0.292400
H 32.401497 -2.594365 0.251885
H 30.467358 -4.469971 0.479193
H 27.892478 -4.421523 0.500446
