193

Zn 28.942664 0.006069 -0.010478
C 31.479121 -3.426216 0.009327
C 32.431461 -2.462380 0.011314
C 31.741275 -1.204160 0.006599
C 32.378937 0.047356 0.006179
C 31.711504 1.283093 0.002787
C 32.371314 2.557517 0.007451
C 31.396100 3.498219 0.002948
C 30.144035 2.796206 -0.004991
N 30.367776 1.451843 -0.004106
C 28.902190 3.409083 -0.014331
C 27.675919 2.765444 -0.024008
C 26.401979 3.432064 -0.036278
C 25.456078 2.464157 -0.043077
C 26.151433 1.205274 -0.034544
N 27.493075 1.418946 -0.023428
C 25.534134 -0.034980 -0.036454
C 26.180986 -1.260036 -0.027591
C 25.516024 -2.535296 -0.028803
C 26.484898 -3.480166 -0.018533
C 27.742479 -2.783074 -0.011318
N 27.527386 -1.441367 -0.016799
C 28.983853 -3.397043 -0.001925
C 30.210586 -2.754456 0.003011
N 30.401989 -1.405100 0.001572
H 31.608598 -4.491340 0.011420
H 33.498394 -2.574696 0.015215
H 33.435279 2.695270 0.013991
H 31.499910 4.566146 0.004617
H 28.890063 4.490220 -0.014959
H 26.268717 4.496924 -0.039400
H 24.388480 2.572912 -0.052849
H 24.453223 -0.047988 -0.045346
H 24.451323 -2.669738 -0.036544
H 26.377295 -4.547936 -0.016134
H 28.997759 -4.478151 0.000726
Zn 82.754201 0.037220 -0.009870
C 80.225691 3.419029 0.609788
C 79.271115 2.473633 0.433926
C 79.958457 1.233541 0.211292
C 79.317916 0.002128 -0.003173
C 79.982337 -1.216476 -0.216926
C 79.319682 -2.470733 -0.434231
C 80.292730 -3.397137 -0.610042
C 81.546353 -2.706534 -0.500177
N 81.325712 -1.383538 -0.258783
C 82.786653 -3.308823 -0.629764
C 84.014316 -2.675381 -0.531410
C 85.286588 -3.329928 -0.673907
C 86.234749 -2.379089 -0.505018
C 85.542469 -1.142789 -0.258863
N 84.200365 -1.352439 -0.283068
C 86.162763 0.074045 -0.026929
C 85.518816 1.276958 0.212898
C 86.186756 2.527651 0.453698
C 85.220064 3.457186 0.635569
C 83.960838 2.775393 0.505452
N 84.172809 1.457297 0.252219
C 82.720895 3.382240 0.616440
C 81.492694 2.754428 0.493243
N 81.298242 1.427750 0.249355
H 80.098672 4.467209 0.800652
H 78.204427 2.587091 0.451675
H 78.255425 -2.605821 -0.448105
H 80.186486 -4.448291 -0.797298
H 82.796229 -4.371891 -0.826729
H 85.417295 -4.375799 -0.875736
H 87.302018 -2.485720 -0.539954
H 87.243706 0.085858 -0.033145
H 87.251792 2.657561 0.476656
H 85.330152 4.505271 0.838221
H 82.709477 4.444749 0.816283
C 33.777567 0.062627 0.007959
C 34.995871 0.068251 0.006944
C 36.337905 0.072419 0.004025
C 37.556254 0.071697 -0.000823
C 47.230907 0.045819 -0.019722
C 48.449605 0.042822 -0.019974
C 49.791404 0.040922 -0.019918
C 51.010121 0.040271 -0.019901
C 60.686110 0.043998 -0.019524
C 61.904795 0.043368 -0.020758
C 63.246596 0.040356 -0.021801
C 64.465259 0.037352 -0.022264
C 74.140172 -0.009724 -0.010675
C 75.358500 -0.012923 -0.009935
C 76.700746 -0.013180 -0.006315
C 77.919016 -0.009381 -0.004487
Zn 42.393423 0.058562 -0.014611
C 39.890391 -3.372806 0.390608
C 38.928113 -2.424518 0.283650
C 39.605356 -1.168436 0.135391
C 38.954361 0.068490 -0.005296
C 39.611528 1.301423 -0.150957
C 38.940670 2.561034 -0.297691
C 39.907742 3.503524 -0.412483
C 41.165041 2.816684 -0.334960
N 40.953599 1.479618 -0.176174
C 42.401966 3.433922 -0.411296
C 43.635530 2.809603 -0.340539
C 44.896233 3.489615 -0.422930
C 45.858623 2.541826 -0.312774
C 45.181598 1.285717 -0.163681
N 43.840495 1.471162 -0.183320
C 45.832967 0.049229 -0.019146
C 45.175415 -1.183887 0.125868
C 45.846056 -2.443808 0.271705
C 44.878840 -3.386631 0.382207
C 43.621607 -2.699719 0.303830
N 43.833381 -1.362179 0.148150
C 42.384846 -3.317357 0.377497
C 41.151118 -2.692987 0.307819
N 40.946465 -1.354396 0.152865
H 39.771901 -4.431992 0.514124
H 37.862367 -2.546119 0.301623
H 37.875522 2.688612 -0.309997
H 39.794604 4.563093 -0.537884
H 42.404739 4.507747 -0.538141
H 45.014487 4.548684 -0.547919
H 46.924385 2.663854 -0.328890
H 46.911182 -2.571539 0.285500
H 44.991675 -4.446505 0.505251
H 42.382081 -4.391445 0.502103
Zn 55.848074 0.042164 -0.019735
C 53.355544 -3.394638 0.403228
C 52.390151 -2.450052 0.291346
C 53.063192 -1.192917 0.133723
C 52.408049 0.040482 -0.019685
C 53.062117 1.274508 -0.172776
C 52.387868 2.531041 -0.329945
C 53.352341 3.476597 -0.441482
C 54.611489 2.794692 -0.352168
N 54.403630 1.457279 -0.190597
C 55.846498 3.416805 -0.418191
C 57.082131 2.797611 -0.337778
C 58.340615 3.482796 -0.410037
C 59.306043 2.538182 -0.298652
C 58.633011 1.278870 -0.158957
N 57.291296 1.459512 -0.183666
C 59.288164 0.043673 -0.020672
C 58.634048 -1.192005 0.118255
C 59.308250 -2.450518 0.258455
C 58.343784 -3.396019 0.370493
C 57.084652 -2.712065 0.298533
N 57.292534 -1.373864 0.143752
C 55.849658 -3.332428 0.379578
C 54.614033 -2.711540 0.313587
N 54.404889 -1.374381 0.151593
H 53.240583 -4.453355 0.533979
H 51.324801 -2.574907 0.311455
H 51.322406 2.654880 -0.349949
H 53.236333 4.535239 -0.571821
H 55.845949 4.490652 -0.544943
H 58.455538 4.542815 -0.529786
H 60.371394 2.664290 -0.308366
H 60.373709 -2.575643 0.267705
H 58.459779 -4.455890 0.490491
H 55.850218 -4.406231 0.506699
Zn 69.302729 0.013769 -0.017617
C 66.791432 -3.411608 0.385082
C 65.831416 -2.461342 0.275616
C 66.511504 -1.206981 0.126553
C 65.863221 0.030855 -0.020086
C 66.523923 1.262135 -0.166455
C 65.856487 2.523209 -0.317530
C 66.826122 3.463780 -0.426050
C 68.081614 2.774441 -0.340929
N 67.866423 1.437526 -0.184520
C 69.319957 3.389872 -0.406349
C 70.552108 2.763512 -0.327029
C 71.814553 3.441577 -0.397904
C 72.774494 2.491520 -0.285874
C 72.094103 1.235903 -0.147628
N 70.753406 1.424236 -0.173824
C 72.741830 -0.003287 -0.012969
C 72.081571 -1.235914 0.119799
C 72.749278 -2.497987 0.260060
C 71.779850 -3.438802 0.368270
C 70.524249 -2.748408 0.294028
N 70.739014 -1.411104 0.142132
C 69.285791 -3.362642 0.369648
C 68.053814 -2.734837 0.302095
N 67.852159 -1.395786 0.146078
H 66.670550 -4.470364 0.510061
H 64.765373 -2.580650 0.292354
H 64.791675 2.653140 -0.335569
H 66.715994 4.523658 -0.551476
H 69.325480 4.463947 -0.530988
H 71.935702 4.500897 -0.517657
H 73.840548 2.611516 -0.295459
H 73.814126 -2.628196 0.272894
H 71.890317 -4.499387 0.487596
H 69.280315 -4.436805 0.493489
