115

Ni 14.489743 -0.000485 -0.005299
C 16.993065 -3.409396 0.046472
C 17.943751 -2.447970 0.040526
C 17.253128 -1.193693 0.019340
C 17.918156 0.036115 0.005922
C 17.227496 1.251604 -0.002824
C 17.891381 2.520397 -0.005189
C 16.920473 3.461434 0.001087
C 15.671316 2.760631 0.004642
N 15.874603 1.406317 0.000931
C 14.449559 3.401291 0.010335
C 13.243119 2.732394 0.001097
C 11.974434 3.402422 -0.003425
C 11.029351 2.437966 -0.025944
C 11.724758 1.182733 -0.032668
N 13.076360 1.376747 -0.014491
C 11.079450 -0.036850 -0.054556
C 11.750725 -1.242521 -0.049595
C 11.082443 -2.512422 -0.062844
C 12.047787 -3.456579 -0.039439
C 13.301627 -2.759549 -0.014358
N 13.105979 -1.407716 -0.022420
C 14.521847 -3.402347 0.013983
C 15.729428 -2.735495 0.026656
N 15.903884 -1.377205 0.012716
H 17.112922 -4.475192 0.061286
H 19.011234 -2.551777 0.049720
H 18.956534 2.646886 -0.009403
H 17.017662 4.529703 0.002390
H 14.438261 4.480507 0.018149
H 11.851850 4.468185 0.007944
H 9.961314 2.538895 -0.036522
H 10.000509 -0.048290 -0.072568
H 10.016970 -2.636180 -0.085702
H 11.948065 -4.524826 -0.039457
H 14.533673 -4.481544 0.022847
Ni 41.361528 0.030664 -0.003185
C 38.868331 3.389048 0.628150
C 37.914608 2.447348 0.449817
C 38.601389 1.212174 0.218516
C 37.933038 0.003515 0.002021
C 38.620145 -1.195820 -0.207531
C 37.952231 -2.444237 -0.422233
C 38.920154 -3.374154 -0.585140
C 40.171517 -2.686677 -0.471030
N 39.972562 -1.351794 -0.238784
C 41.391155 -3.320129 -0.590923
C 42.599593 -2.662187 -0.492049
C 43.866051 -3.322775 -0.626981
C 44.814126 -2.372647 -0.477746
C 44.122756 -1.135932 -0.250253
N 42.770607 -1.326677 -0.261934
C 44.771910 0.064540 -0.046083
C 44.104443 1.250601 0.181974
C 44.776840 2.498659 0.404796
C 43.814405 3.426636 0.595644
C 42.558191 2.742112 0.486084
N 42.749609 1.413391 0.233754
C 41.339826 3.375391 0.618428
C 40.129969 2.722855 0.501783
N 39.951315 1.388341 0.251443
H 38.751814 4.436824 0.826084
H 36.847403 2.552651 0.470398
H 36.886678 -2.565910 -0.441322
H 38.819560 -4.426471 -0.767118
H 41.399039 -4.383577 -0.775041
H 43.985204 -4.372855 -0.811659
H 45.881761 -2.472361 -0.512502
H 45.850889 0.075673 -0.061847
H 45.842815 2.620076 0.410095
H 43.917559 4.476481 0.791288
H 41.331405 4.435841 0.819110
C 19.315870 0.049142 0.005220
C 20.533566 0.056649 0.002433
C 21.876021 0.058559 -0.000008
C 23.093848 0.056474 -0.002457
C 32.757069 -0.009217 -0.011671
C 33.974821 -0.012488 -0.008702
C 35.317446 -0.009823 -0.004675
C 36.535071 -0.006506 -0.001494
Ni 27.925346 0.022595 -0.014544
C 25.431142 -3.377126 0.333310
C 24.476346 -2.424772 0.233197
C 25.161836 -1.173766 0.110428
C 24.491036 0.047784 -0.006180
C 25.178570 1.259176 -0.128171
C 24.510695 2.519775 -0.250583
C 25.478754 3.457630 -0.359885
C 26.729266 2.762524 -0.302427
N 26.530501 1.415234 -0.157693
C 27.948903 3.400336 -0.390154
C 29.159385 2.742205 -0.330391
C 30.419566 3.416068 -0.420523
C 31.374394 2.464629 -0.312667
C 30.688885 1.216975 -0.158449
N 29.339254 1.393686 -0.172644
C 31.359650 -0.001522 -0.014396
C 30.672313 -1.210893 0.126759
C 31.340241 -2.468397 0.277238
C 30.372163 -3.406954 0.380160
C 29.121576 -2.715202 0.292229
N 29.320287 -1.368801 0.139422
C 27.901845 -3.356066 0.351699
C 26.691317 -2.700277 0.270973
N 26.511449 -1.349684 0.131715
H 25.315889 -4.438226 0.439828
H 23.409211 -2.532775 0.239676
H 23.445276 2.643262 -0.251220
H 25.378490 4.519897 -0.469582
H 27.956604 4.472908 -0.510759
H 30.534795 4.474784 -0.548719
H 32.441492 2.571054 -0.333620
H 32.405738 -2.589719 0.298396
H 30.472408 -4.467688 0.504086
H 27.894158 -4.429091 0.468281
