
  xtb     11212101403D
 xtb: 6.4.1 (bd6e46d)
115138  0     0  0            999 V2000
   14.4897   -0.0005   -0.0053 Ni  0  0  0  0  0  0  0  0  0  0  0  0
   16.9931   -3.4094    0.0465 C   0  0  0  0  0  0  0  0  0  0  0  0
   17.9438   -2.4480    0.0405 C   0  0  0  0  0  0  0  0  0  0  0  0
   17.2531   -1.1937    0.0193 C   0  0  0  0  0  0  0  0  0  0  0  0
   17.9182    0.0361    0.0059 C   0  0  0  0  0  0  0  0  0  0  0  0
   17.2275    1.2516   -0.0028 C   0  0  0  0  0  0  0  0  0  0  0  0
   17.8914    2.5204   -0.0052 C   0  0  0  0  0  0  0  0  0  0  0  0
   16.9205    3.4614    0.0011 C   0  0  0  0  0  0  0  0  0  0  0  0
   15.6713    2.7606    0.0046 C   0  0  0  0  0  0  0  0  0  0  0  0
   15.8746    1.4063    0.0009 N   0  0  0  0  0  0  0  0  0  0  0  0
   14.4496    3.4013    0.0103 C   0  0  0  0  0  0  0  0  0  0  0  0
   13.2431    2.7324    0.0011 C   0  0  0  0  0  0  0  0  0  0  0  0
   11.9744    3.4024   -0.0034 C   0  0  0  0  0  0  0  0  0  0  0  0
   11.0294    2.4380   -0.0259 C   0  0  0  0  0  0  0  0  0  0  0  0
   11.7248    1.1827   -0.0327 C   0  0  0  0  0  0  0  0  0  0  0  0
   13.0764    1.3767   -0.0145 N   0  0  0  0  0  0  0  0  0  0  0  0
   11.0794   -0.0369   -0.0546 C   0  0  0  0  0  0  0  0  0  0  0  0
   11.7507   -1.2425   -0.0496 C   0  0  0  0  0  0  0  0  0  0  0  0
   11.0824   -2.5124   -0.0628 C   0  0  0  0  0  0  0  0  0  0  0  0
   12.0478   -3.4566   -0.0394 C   0  0  0  0  0  0  0  0  0  0  0  0
   13.3016   -2.7595   -0.0144 C   0  0  0  0  0  0  0  0  0  0  0  0
   13.1060   -1.4077   -0.0224 N   0  0  0  0  0  0  0  0  0  0  0  0
   14.5218   -3.4023    0.0140 C   0  0  0  0  0  0  0  0  0  0  0  0
   15.7294   -2.7355    0.0267 C   0  0  0  0  0  0  0  0  0  0  0  0
   15.9039   -1.3772    0.0127 N   0  0  0  0  0  0  0  0  0  0  0  0
   17.1129   -4.4752    0.0613 H   0  0  0  0  0  0  0  0  0  0  0  0
   19.0112   -2.5518    0.0497 H   0  0  0  0  0  0  0  0  0  0  0  0
   18.9565    2.6469   -0.0094 H   0  0  0  0  0  0  0  0  0  0  0  0
   17.0177    4.5297    0.0024 H   0  0  0  0  0  0  0  0  0  0  0  0
   14.4383    4.4805    0.0181 H   0  0  0  0  0  0  0  0  0  0  0  0
   11.8519    4.4682    0.0079 H   0  0  0  0  0  0  0  0  0  0  0  0
    9.9613    2.5389   -0.0365 H   0  0  0  0  0  0  0  0  0  0  0  0
   10.0005   -0.0483   -0.0726 H   0  0  0  0  0  0  0  0  0  0  0  0
   10.0170   -2.6362   -0.0857 H   0  0  0  0  0  0  0  0  0  0  0  0
   11.9481   -4.5248   -0.0395 H   0  0  0  0  0  0  0  0  0  0  0  0
   14.5337   -4.4815    0.0228 H   0  0  0  0  0  0  0  0  0  0  0  0
   41.3615    0.0307   -0.0032 Ni  0  0  0  0  0  0  0  0  0  0  0  0
   38.8683    3.3890    0.6282 C   0  0  0  0  0  0  0  0  0  0  0  0
   37.9146    2.4473    0.4498 C   0  0  0  0  0  0  0  0  0  0  0  0
   38.6014    1.2122    0.2185 C   0  0  0  0  0  0  0  0  0  0  0  0
   37.9330    0.0035    0.0020 C   0  0  0  0  0  0  0  0  0  0  0  0
   38.6201   -1.1958   -0.2075 C   0  0  0  0  0  0  0  0  0  0  0  0
   37.9522   -2.4442   -0.4222 C   0  0  0  0  0  0  0  0  0  0  0  0
   38.9202   -3.3742   -0.5851 C   0  0  0  0  0  0  0  0  0  0  0  0
   40.1715   -2.6867   -0.4710 C   0  0  0  0  0  0  0  0  0  0  0  0
   39.9726   -1.3518   -0.2388 N   0  0  0  0  0  0  0  0  0  0  0  0
   41.3912   -3.3201   -0.5909 C   0  0  0  0  0  0  0  0  0  0  0  0
   42.5996   -2.6622   -0.4920 C   0  0  0  0  0  0  0  0  0  0  0  0
   43.8661   -3.3228   -0.6270 C   0  0  0  0  0  0  0  0  0  0  0  0
   44.8141   -2.3726   -0.4777 C   0  0  0  0  0  0  0  0  0  0  0  0
   44.1228   -1.1359   -0.2503 C   0  0  0  0  0  0  0  0  0  0  0  0
   42.7706   -1.3267   -0.2619 N   0  0  0  0  0  0  0  0  0  0  0  0
   44.7719    0.0645   -0.0461 C   0  0  0  0  0  0  0  0  0  0  0  0
   44.1044    1.2506    0.1820 C   0  0  0  0  0  0  0  0  0  0  0  0
   44.7768    2.4987    0.4048 C   0  0  0  0  0  0  0  0  0  0  0  0
   43.8144    3.4266    0.5956 C   0  0  0  0  0  0  0  0  0  0  0  0
   42.5582    2.7421    0.4861 C   0  0  0  0  0  0  0  0  0  0  0  0
   42.7496    1.4134    0.2338 N   0  0  0  0  0  0  0  0  0  0  0  0
   41.3398    3.3754    0.6184 C   0  0  0  0  0  0  0  0  0  0  0  0
   40.1300    2.7229    0.5018 C   0  0  0  0  0  0  0  0  0  0  0  0
   39.9513    1.3883    0.2514 N   0  0  0  0  0  0  0  0  0  0  0  0
   38.7518    4.4368    0.8261 H   0  0  0  0  0  0  0  0  0  0  0  0
   36.8474    2.5527    0.4704 H   0  0  0  0  0  0  0  0  0  0  0  0
   36.8867   -2.5659   -0.4413 H   0  0  0  0  0  0  0  0  0  0  0  0
   38.8196   -4.4265   -0.7671 H   0  0  0  0  0  0  0  0  0  0  0  0
   41.3990   -4.3836   -0.7750 H   0  0  0  0  0  0  0  0  0  0  0  0
   43.9852   -4.3729   -0.8117 H   0  0  0  0  0  0  0  0  0  0  0  0
   45.8818   -2.4724   -0.5125 H   0  0  0  0  0  0  0  0  0  0  0  0
   45.8509    0.0757   -0.0618 H   0  0  0  0  0  0  0  0  0  0  0  0
   45.8428    2.6201    0.4101 H   0  0  0  0  0  0  0  0  0  0  0  0
   43.9176    4.4765    0.7913 H   0  0  0  0  0  0  0  0  0  0  0  0
   41.3314    4.4358    0.8191 H   0  0  0  0  0  0  0  0  0  0  0  0
   19.3159    0.0491    0.0052 C   0  0  0  0  0  0  0  0  0  0  0  0
   20.5336    0.0566    0.0024 C   0  0  0  0  0  0  0  0  0  0  0  0
   21.8760    0.0586   -0.0000 C   0  0  0  0  0  0  0  0  0  0  0  0
   23.0938    0.0565   -0.0025 C   0  0  0  0  0  0  0  0  0  0  0  0
   32.7571   -0.0092   -0.0117 C   0  0  0  0  0  0  0  0  0  0  0  0
   33.9748   -0.0125   -0.0087 C   0  0  0  0  0  0  0  0  0  0  0  0
   35.3174   -0.0098   -0.0047 C   0  0  0  0  0  0  0  0  0  0  0  0
   36.5351   -0.0065   -0.0015 C   0  0  0  0  0  0  0  0  0  0  0  0
   27.9253    0.0226   -0.0145 Ni  0  0  0  0  0  0  0  0  0  0  0  0
   25.4311   -3.3771    0.3333 C   0  0  0  0  0  0  0  0  0  0  0  0
   24.4763   -2.4248    0.2332 C   0  0  0  0  0  0  0  0  0  0  0  0
   25.1618   -1.1738    0.1104 C   0  0  0  0  0  0  0  0  0  0  0  0
   24.4910    0.0478   -0.0062 C   0  0  0  0  0  0  0  0  0  0  0  0
   25.1786    1.2592   -0.1282 C   0  0  0  0  0  0  0  0  0  0  0  0
   24.5107    2.5198   -0.2506 C   0  0  0  0  0  0  0  0  0  0  0  0
   25.4788    3.4576   -0.3599 C   0  0  0  0  0  0  0  0  0  0  0  0
   26.7293    2.7625   -0.3024 C   0  0  0  0  0  0  0  0  0  0  0  0
   26.5305    1.4152   -0.1577 N   0  0  0  0  0  0  0  0  0  0  0  0
   27.9489    3.4003   -0.3902 C   0  0  0  0  0  0  0  0  0  0  0  0
   29.1594    2.7422   -0.3304 C   0  0  0  0  0  0  0  0  0  0  0  0
   30.4196    3.4161   -0.4205 C   0  0  0  0  0  0  0  0  0  0  0  0
   31.3744    2.4646   -0.3127 C   0  0  0  0  0  0  0  0  0  0  0  0
   30.6889    1.2170   -0.1584 C   0  0  0  0  0  0  0  0  0  0  0  0
   29.3393    1.3937   -0.1726 N   0  0  0  0  0  0  0  0  0  0  0  0
   31.3596   -0.0015   -0.0144 C   0  0  0  0  0  0  0  0  0  0  0  0
   30.6723   -1.2109    0.1268 C   0  0  0  0  0  0  0  0  0  0  0  0
   31.3402   -2.4684    0.2772 C   0  0  0  0  0  0  0  0  0  0  0  0
   30.3722   -3.4070    0.3802 C   0  0  0  0  0  0  0  0  0  0  0  0
   29.1216   -2.7152    0.2922 C   0  0  0  0  0  0  0  0  0  0  0  0
   29.3203   -1.3688    0.1394 N   0  0  0  0  0  0  0  0  0  0  0  0
   27.9018   -3.3561    0.3517 C   0  0  0  0  0  0  0  0  0  0  0  0
   26.6913   -2.7003    0.2710 C   0  0  0  0  0  0  0  0  0  0  0  0
   26.5114   -1.3497    0.1317 N   0  0  0  0  0  0  0  0  0  0  0  0
   25.3159   -4.4382    0.4398 H   0  0  0  0  0  0  0  0  0  0  0  0
   23.4092   -2.5328    0.2397 H   0  0  0  0  0  0  0  0  0  0  0  0
   23.4453    2.6433   -0.2512 H   0  0  0  0  0  0  0  0  0  0  0  0
   25.3785    4.5199   -0.4696 H   0  0  0  0  0  0  0  0  0  0  0  0
   27.9566    4.4729   -0.5108 H   0  0  0  0  0  0  0  0  0  0  0  0
   30.5348    4.4748   -0.5487 H   0  0  0  0  0  0  0  0  0  0  0  0
   32.4415    2.5711   -0.3336 H   0  0  0  0  0  0  0  0  0  0  0  0
   32.4057   -2.5897    0.2984 H   0  0  0  0  0  0  0  0  0  0  0  0
   30.4724   -4.4677    0.5041 H   0  0  0  0  0  0  0  0  0  0  0  0
   27.8942   -4.4291    0.4683 H   0  0  0  0  0  0  0  0  0  0  0  0
  2  3  2  0  0  0  0
  3  4  1  0  0  0  0
  4  5  4  0  0  0  0
  5  6  4  0  0  0  0
  6  7  1  0  0  0  0
  7  8  2  0  0  0  0
  8  9  1  0  0  0  0
  1 10  1  0  0  0  0
  6 10  4  0  0  0  0
  9 10  4  0  0  0  0
  9 11  4  0  0  0  0
 11 12  4  0  0  0  0
 12 13  1  0  0  0  0
 13 14  2  0  0  0  0
 14 15  1  0  0  0  0
  1 16  1  0  0  0  0
 12 16  4  0  0  0  0
 15 16  4  0  0  0  0
 15 17  4  0  0  0  0
 17 18  4  0  0  0  0
 18 19  1  0  0  0  0
 19 20  2  0  0  0  0
 20 21  1  0  0  0  0
  1 22  1  0  0  0  0
 18 22  4  0  0  0  0
 21 22  4  0  0  0  0
 21 23  4  0  0  0  0
  2 24  1  0  0  0  0
 23 24  4  0  0  0  0
  1 25  1  0  0  0  0
  4 25  4  0  0  0  0
 24 25  4  0  0  0  0
  2 26  1  0  0  0  0
  3 27  1  0  0  0  0
  7 28  1  0  0  0  0
  8 29  1  0  0  0  0
 11 30  1  0  0  0  0
 13 31  1  0  0  0  0
 14 32  1  0  0  0  0
 17 33  1  0  0  0  0
 19 34  1  0  0  0  0
 20 35  1  0  0  0  0
 23 36  1  0  0  0  0
 38 39  2  0  0  0  0
 39 40  1  0  0  0  0
 40 41  4  0  0  0  0
 41 42  4  0  0  0  0
 42 43  1  0  0  0  0
 43 44  2  0  0  0  0
 44 45  1  0  0  0  0
 37 46  1  0  0  0  0
 42 46  4  0  0  0  0
 45 46  4  0  0  0  0
 45 47  4  0  0  0  0
 47 48  4  0  0  0  0
 48 49  1  0  0  0  0
 49 50  2  0  0  0  0
 50 51  1  0  0  0  0
 37 52  1  0  0  0  0
 48 52  4  0  0  0  0
 51 52  4  0  0  0  0
 51 53  4  0  0  0  0
 53 54  4  0  0  0  0
 54 55  1  0  0  0  0
 55 56  2  0  0  0  0
 56 57  1  0  0  0  0
 37 58  1  0  0  0  0
 54 58  4  0  0  0  0
 57 58  4  0  0  0  0
 57 59  4  0  0  0  0
 38 60  1  0  0  0  0
 59 60  4  0  0  0  0
 37 61  1  0  0  0  0
 40 61  4  0  0  0  0
 60 61  4  0  0  0  0
 38 62  1  0  0  0  0
 39 63  1  0  0  0  0
 43 64  1  0  0  0  0
 44 65  1  0  0  0  0
 47 66  1  0  0  0  0
 49 67  1  0  0  0  0
 50 68  1  0  0  0  0
 53 69  1  0  0  0  0
 55 70  1  0  0  0  0
 56 71  1  0  0  0  0
 59 72  1  0  0  0  0
  5 73  1  0  0  0  0
 73 74  3  0  0  0  0
 74 75  4  0  0  0  0
 75 76  3  0  0  0  0
 77 78  3  0  0  0  0
 78 79  4  0  0  0  0
 41 80  1  0  0  0  0
 79 80  3  0  0  0  0
 82 83  2  0  0  0  0
 83 84  1  0  0  0  0
 76 85  1  0  0  0  0
 84 85  4  0  0  0  0
 85 86  4  0  0  0  0
 86 87  1  0  0  0  0
 87 88  2  0  0  0  0
 88 89  1  0  0  0  0
 81 90  1  0  0  0  0
 86 90  4  0  0  0  0
 89 90  4  0  0  0  0
 89 91  4  0  0  0  0
 91 92  4  0  0  0  0
 92 93  1  0  0  0  0
 93 94  2  0  0  0  0
 94 95  1  0  0  0  0
 81 96  1  0  0  0  0
 92 96  4  0  0  0  0
 95 96  4  0  0  0  0
 77 97  1  0  0  0  0
 95 97  4  0  0  0  0
 97 98  4  0  0  0  0
 98 99  1  0  0  0  0
 99100  2  0  0  0  0
100101  1  0  0  0  0
 81102  1  0  0  0  0
 98102  4  0  0  0  0
101102  4  0  0  0  0
101103  4  0  0  0  0
 82104  1  0  0  0  0
103104  4  0  0  0  0
 81105  1  0  0  0  0
 84105  4  0  0  0  0
104105  4  0  0  0  0
 82106  1  0  0  0  0
 83107  1  0  0  0  0
 87108  1  0  0  0  0
 88109  1  0  0  0  0
 91110  1  0  0  0  0
 93111  1  0  0  0  0
 94112  1  0  0  0  0
 99113  1  0  0  0  0
100114  1  0  0  0  0
103115  1  0  0  0  0
M  END
