
  xtb     11212119233D
 xtb: 6.4.1 (bd6e46d)
318357  0     0  0            999 V2000
   57.6991    3.4397    0.0552 C   0  0  0  0  0  0  0  0  0  0  0  0
   58.6562    2.4920    0.0276 C   0  0  0  0  0  0  0  0  0  0  0  0
   57.9570    1.2204   -0.0241 C   0  0  0  0  0  0  0  0  0  0  0  0
   58.6202   -0.0226   -0.0618 C   0  0  0  0  0  0  0  0  0  0  0  0
   57.9702   -1.2670   -0.1115 C   0  0  0  0  0  0  0  0  0  0  0  0
   58.5744   -2.5519   -0.1537 C   0  0  0  0  0  0  0  0  0  0  0  0
   57.5704   -3.4759   -0.1983 C   0  0  0  0  0  0  0  0  0  0  0  0
   56.3317   -2.7750   -0.1841 C   0  0  0  0  0  0  0  0  0  0  0  0
   56.6261   -1.4463   -0.1311 N   0  0  0  0  0  0  0  0  0  0  0  0
   55.0640   -3.3366   -0.2186 C   0  0  0  0  0  0  0  0  0  0  0  0
   53.8464   -2.6703   -0.2052 C   0  0  0  0  0  0  0  0  0  0  0  0
   52.5686   -3.3668   -0.2446 C   0  0  0  0  0  0  0  0  0  0  0  0
   51.6196   -2.4130   -0.2161 C   0  0  0  0  0  0  0  0  0  0  0  0
   52.3250   -1.1419   -0.1599 C   0  0  0  0  0  0  0  0  0  0  0  0
   53.6609   -1.3349   -0.1551 N   0  0  0  0  0  0  0  0  0  0  0  0
   51.6792    0.0873   -0.1178 C   0  0  0  0  0  0  0  0  0  0  0  0
   52.3047    1.3235   -0.0651 C   0  0  0  0  0  0  0  0  0  0  0  0
   51.6989    2.6117   -0.0209 C   0  0  0  0  0  0  0  0  0  0  0  0
   52.6992    3.5373    0.0220 C   0  0  0  0  0  0  0  0  0  0  0  0
   53.9417    2.8390    0.0052 C   0  0  0  0  0  0  0  0  0  0  0  0
   53.6511    1.5125   -0.0473 N   0  0  0  0  0  0  0  0  0  0  0  0
   55.2099    3.3999    0.0357 C   0  0  0  0  0  0  0  0  0  0  0  0
   56.4278    2.7368    0.0200 C   0  0  0  0  0  0  0  0  0  0  0  0
   56.6256    1.3973   -0.0277 N   0  0  0  0  0  0  0  0  0  0  0  0
   57.8060    4.5067    0.0952 H   0  0  0  0  0  0  0  0  0  0  0  0
   59.7232    2.6036    0.0399 H   0  0  0  0  0  0  0  0  0  0  0  0
   59.6321   -2.7297   -0.1505 H   0  0  0  0  0  0  0  0  0  0  0  0
   57.6678   -4.5434   -0.2376 H   0  0  0  0  0  0  0  0  0  0  0  0
   55.9538   -0.6882   -0.1094 H   0  0  0  0  0  0  0  0  0  0  0  0
   55.0226   -4.4163   -0.2605 H   0  0  0  0  0  0  0  0  0  0  0  0
   52.4561   -4.4333   -0.2874 H   0  0  0  0  0  0  0  0  0  0  0  0
   50.5517   -2.5184   -0.2302 H   0  0  0  0  0  0  0  0  0  0  0  0
   50.5988    0.0800   -0.1272 H   0  0  0  0  0  0  0  0  0  0  0  0
   50.6412    2.7907   -0.0224 H   0  0  0  0  0  0  0  0  0  0  0  0
   52.6004    4.6048    0.0617 H   0  0  0  0  0  0  0  0  0  0  0  0
   54.3225    0.7545   -0.0709 H   0  0  0  0  0  0  0  0  0  0  0  0
   55.2530    4.4797    0.0765 H   0  0  0  0  0  0  0  0  0  0  0  0
  147.6654   -3.4133    0.4065 C   0  0  0  0  0  0  0  0  0  0  0  0
  146.7084   -2.4675    0.3374 C   0  0  0  0  0  0  0  0  0  0  0  0
  147.4072   -1.2035    0.1872 C   0  0  0  0  0  0  0  0  0  0  0  0
  146.7440    0.0355    0.0797 C   0  0  0  0  0  0  0  0  0  0  0  0
  147.3939    1.2733   -0.0581 C   0  0  0  0  0  0  0  0  0  0  0  0
  146.7898    2.5547   -0.1635 C   0  0  0  0  0  0  0  0  0  0  0  0
  147.7933    3.4729   -0.2801 C   0  0  0  0  0  0  0  0  0  0  0  0
  149.0315    2.7718   -0.2498 C   0  0  0  0  0  0  0  0  0  0  0  0
  148.7375    1.4489   -0.1136 N   0  0  0  0  0  0  0  0  0  0  0  0
  150.2987    3.3277   -0.3449 C   0  0  0  0  0  0  0  0  0  0  0  0
  151.5155    2.6601   -0.3244 C   0  0  0  0  0  0  0  0  0  0  0  0
  152.7925    3.3498   -0.4390 C   0  0  0  0  0  0  0  0  0  0  0  0
  153.7409    2.3965   -0.3839 C   0  0  0  0  0  0  0  0  0  0  0  0
  153.0360    1.1327   -0.2350 C   0  0  0  0  0  0  0  0  0  0  0  0
  151.7010    1.3293   -0.2033 N   0  0  0  0  0  0  0  0  0  0  0  0
  153.6815   -0.0937   -0.1399 C   0  0  0  0  0  0  0  0  0  0  0  0
  153.0567   -1.3227    0.0057 C   0  0  0  0  0  0  0  0  0  0  0  0
  153.6620   -2.6076    0.1111 C   0  0  0  0  0  0  0  0  0  0  0  0
  152.6623   -3.5256    0.2417 C   0  0  0  0  0  0  0  0  0  0  0  0
  151.4207   -2.8260    0.2189 C   0  0  0  0  0  0  0  0  0  0  0  0
  151.7111   -1.5062    0.0755 N   0  0  0  0  0  0  0  0  0  0  0  0
  150.1534   -3.3806    0.3215 C   0  0  0  0  0  0  0  0  0  0  0  0
  148.9360   -2.7169    0.2958 C   0  0  0  0  0  0  0  0  0  0  0  0
  148.7380   -1.3829    0.1660 N   0  0  0  0  0  0  0  0  0  0  0  0
  147.5588   -4.4752    0.5190 H   0  0  0  0  0  0  0  0  0  0  0  0
  145.6420   -2.5758    0.3805 H   0  0  0  0  0  0  0  0  0  0  0  0
  145.7324    2.7342   -0.1499 H   0  0  0  0  0  0  0  0  0  0  0  0
  147.6957    4.5365   -0.3789 H   0  0  0  0  0  0  0  0  0  0  0  0
  149.4100    0.6926   -0.0611 H   0  0  0  0  0  0  0  0  0  0  0  0
  150.3402    4.4031   -0.4495 H   0  0  0  0  0  0  0  0  0  0  0  0
  152.9049    4.4119   -0.5456 H   0  0  0  0  0  0  0  0  0  0  0  0
  154.8080    2.4981   -0.4346 H   0  0  0  0  0  0  0  0  0  0  0  0
  154.7611   -0.0899   -0.1819 H   0  0  0  0  0  0  0  0  0  0  0  0
  154.7189   -2.7896    0.0885 H   0  0  0  0  0  0  0  0  0  0  0  0
  152.7610   -4.5890    0.3445 H   0  0  0  0  0  0  0  0  0  0  0  0
  151.0408   -0.7485    0.0251 H   0  0  0  0  0  0  0  0  0  0  0  0
  150.1109   -4.4554    0.4320 H   0  0  0  0  0  0  0  0  0  0  0  0
   60.0164   -0.0239   -0.0502 C   0  0  0  0  0  0  0  0  0  0  0  0
   61.2352   -0.0169   -0.0375 C   0  0  0  0  0  0  0  0  0  0  0  0
   62.5757   -0.0062   -0.0289 C   0  0  0  0  0  0  0  0  0  0  0  0
   63.7946    0.0090   -0.0207 C   0  0  0  0  0  0  0  0  0  0  0  0
   73.6115   -0.0095    0.0347 C   0  0  0  0  0  0  0  0  0  0  0  0
   74.8306    0.0084    0.0403 C   0  0  0  0  0  0  0  0  0  0  0  0
   76.1704    0.0243    0.0465 C   0  0  0  0  0  0  0  0  0  0  0  0
   77.3896    0.0382    0.0517 C   0  0  0  0  0  0  0  0  0  0  0  0
   87.2035   -0.0255    0.0278 C   0  0  0  0  0  0  0  0  0  0  0  0
   88.4224   -0.0088    0.0016 C   0  0  0  0  0  0  0  0  0  0  0  0
   89.7619    0.0074   -0.0244 C   0  0  0  0  0  0  0  0  0  0  0  0
   90.9807    0.0255   -0.0524 C   0  0  0  0  0  0  0  0  0  0  0  0
  100.7922    0.0084   -0.0810 C   0  0  0  0  0  0  0  0  0  0  0  0
  102.0113    0.0270   -0.0694 C   0  0  0  0  0  0  0  0  0  0  0  0
  103.3509    0.0424   -0.0512 C   0  0  0  0  0  0  0  0  0  0  0  0
  104.5700    0.0553   -0.0332 C   0  0  0  0  0  0  0  0  0  0  0  0
  114.3812   -0.0459    0.1140 C   0  0  0  0  0  0  0  0  0  0  0  0
  115.6003   -0.0328    0.1026 C   0  0  0  0  0  0  0  0  0  0  0  0
  116.9401   -0.0180    0.0887 C   0  0  0  0  0  0  0  0  0  0  0  0
  118.1589    0.0040    0.0665 C   0  0  0  0  0  0  0  0  0  0  0  0
  127.9743    0.0083   -0.0150 C   0  0  0  0  0  0  0  0  0  0  0  0
  129.1934    0.0284   -0.0102 C   0  0  0  0  0  0  0  0  0  0  0  0
  130.5332    0.0480   -0.0043 C   0  0  0  0  0  0  0  0  0  0  0  0
  131.7524    0.0665    0.0026 C   0  0  0  0  0  0  0  0  0  0  0  0
  141.5699    0.0212    0.1346 C   0  0  0  0  0  0  0  0  0  0  0  0
  142.7889    0.0292    0.1324 C   0  0  0  0  0  0  0  0  0  0  0  0
  144.1294    0.0347    0.1225 C   0  0  0  0  0  0  0  0  0  0  0  0
  145.3481    0.0394    0.1066 C   0  0  0  0  0  0  0  0  0  0  0  0
   66.1732   -3.4183    0.2414 C   0  0  0  0  0  0  0  0  0  0  0  0
   65.1973   -2.4922    0.1661 C   0  0  0  0  0  0  0  0  0  0  0  0
   65.8713   -1.2101    0.0781 C   0  0  0  0  0  0  0  0  0  0  0  0
   65.1895    0.0202   -0.0131 C   0  0  0  0  0  0  0  0  0  0  0  0
   65.8351    1.2658   -0.0975 C   0  0  0  0  0  0  0  0  0  0  0  0
   65.2356    2.5485   -0.1929 C   0  0  0  0  0  0  0  0  0  0  0  0
   66.2449    3.4668   -0.2560 C   0  0  0  0  0  0  0  0  0  0  0  0
   67.4801    2.7632   -0.2006 C   0  0  0  0  0  0  0  0  0  0  0  0
   67.1802    1.4386   -0.1049 N   0  0  0  0  0  0  0  0  0  0  0  0
   68.7476    3.3287   -0.2393 C   0  0  0  0  0  0  0  0  0  0  0  0
   69.9756    2.6895   -0.1886 C   0  0  0  0  0  0  0  0  0  0  0  0
   71.2332    3.4158   -0.2395 C   0  0  0  0  0  0  0  0  0  0  0  0
   72.2090    2.4896   -0.1659 C   0  0  0  0  0  0  0  0  0  0  0  0
   71.5349    1.2079   -0.0712 C   0  0  0  0  0  0  0  0  0  0  0  0
   70.2004    1.3568   -0.0874 N   0  0  0  0  0  0  0  0  0  0  0  0
   72.2172   -0.0220    0.0267 C   0  0  0  0  0  0  0  0  0  0  0  0
   71.5718   -1.2671    0.1190 C   0  0  0  0  0  0  0  0  0  0  0  0
   72.1709   -2.5496    0.2211 C   0  0  0  0  0  0  0  0  0  0  0  0
   71.1613   -3.4674    0.2843 C   0  0  0  0  0  0  0  0  0  0  0  0
   69.9262   -2.7639    0.2222 C   0  0  0  0  0  0  0  0  0  0  0  0
   70.2268   -1.4397    0.1235 N   0  0  0  0  0  0  0  0  0  0  0  0
   68.6590   -3.3298    0.2553 C   0  0  0  0  0  0  0  0  0  0  0  0
   67.4307   -2.6913    0.1980 C   0  0  0  0  0  0  0  0  0  0  0  0
   67.2060   -1.3587    0.0985 N   0  0  0  0  0  0  0  0  0  0  0  0
   66.0873   -4.4851    0.3187 H   0  0  0  0  0  0  0  0  0  0  0  0
   64.1328   -2.6248    0.1678 H   0  0  0  0  0  0  0  0  0  0  0  0
   64.1787    2.7300   -0.2102 H   0  0  0  0  0  0  0  0  0  0  0  0
   66.1522    4.5326   -0.3340 H   0  0  0  0  0  0  0  0  0  0  0  0
   67.8373    0.6684   -0.0463 H   0  0  0  0  0  0  0  0  0  0  0  0
   68.7768    4.4070   -0.3192 H   0  0  0  0  0  0  0  0  0  0  0  0
   71.3192    4.4824   -0.3200 H   0  0  0  0  0  0  0  0  0  0  0  0
   73.2736    2.6217   -0.1722 H   0  0  0  0  0  0  0  0  0  0  0  0
   73.2278   -2.7311    0.2418 H   0  0  0  0  0  0  0  0  0  0  0  0
   71.2535   -4.5330    0.3663 H   0  0  0  0  0  0  0  0  0  0  0  0
   69.5710   -0.6686    0.0601 H   0  0  0  0  0  0  0  0  0  0  0  0
   68.6300   -4.4081    0.3360 H   0  0  0  0  0  0  0  0  0  0  0  0
   79.7524   -3.3817    0.4701 C   0  0  0  0  0  0  0  0  0  0  0  0
   78.7810   -2.4551    0.3549 C   0  0  0  0  0  0  0  0  0  0  0  0
   79.4610   -1.1819    0.2053 C   0  0  0  0  0  0  0  0  0  0  0  0
   78.7840    0.0461    0.0588 C   0  0  0  0  0  0  0  0  0  0  0  0
   79.4343    1.2843   -0.0813 C   0  0  0  0  0  0  0  0  0  0  0  0
   78.8401    2.5645   -0.2291 C   0  0  0  0  0  0  0  0  0  0  0  0
   79.8531    3.4753   -0.3296 C   0  0  0  0  0  0  0  0  0  0  0  0
   81.0854    2.7693   -0.2465 C   0  0  0  0  0  0  0  0  0  0  0  0
   80.7800    1.4510   -0.0968 N   0  0  0  0  0  0  0  0  0  0  0  0
   82.3552    3.3270   -0.3101 C   0  0  0  0  0  0  0  0  0  0  0  0
   83.5802    2.6839   -0.2416 C   0  0  0  0  0  0  0  0  0  0  0  0
   84.8412    3.4006   -0.3305 C   0  0  0  0  0  0  0  0  0  0  0  0
   85.8125    2.4717   -0.2342 C   0  0  0  0  0  0  0  0  0  0  0  0
   85.1323    1.1984   -0.0855 C   0  0  0  0  0  0  0  0  0  0  0  0
   83.7987    1.3544   -0.0931 N   0  0  0  0  0  0  0  0  0  0  0  0
   85.8094   -0.0310    0.0491 C   0  0  0  0  0  0  0  0  0  0  0  0
   85.1593   -1.2676    0.2035 C   0  0  0  0  0  0  0  0  0  0  0  0
   85.7536   -2.5474    0.3545 C   0  0  0  0  0  0  0  0  0  0  0  0
   84.7406   -3.4561    0.4725 C   0  0  0  0  0  0  0  0  0  0  0  0
   83.5083   -2.7495    0.3946 C   0  0  0  0  0  0  0  0  0  0  0  0
   83.8137   -1.4325    0.2336 N   0  0  0  0  0  0  0  0  0  0  0  0
   82.2385   -3.3063    0.4656 C   0  0  0  0  0  0  0  0  0  0  0  0
   81.0133   -2.6642    0.3876 C   0  0  0  0  0  0  0  0  0  0  0  0
   80.7948   -1.3361    0.2280 N   0  0  0  0  0  0  0  0  0  0  0  0
   79.6614   -4.4433    0.5972 H   0  0  0  0  0  0  0  0  0  0  0  0
   77.7158   -2.5821    0.3663 H   0  0  0  0  0  0  0  0  0  0  0  0
   77.7839    2.7495   -0.2534 H   0  0  0  0  0  0  0  0  0  0  0  0
   79.7650    4.5374   -0.4508 H   0  0  0  0  0  0  0  0  0  0  0  0
   81.4338    0.6809   -0.0072 H   0  0  0  0  0  0  0  0  0  0  0  0
   82.3892    4.4013   -0.4315 H   0  0  0  0  0  0  0  0  0  0  0  0
   84.9323    4.4631   -0.4501 H   0  0  0  0  0  0  0  0  0  0  0  0
   86.8777    2.5975   -0.2560 H   0  0  0  0  0  0  0  0  0  0  0  0
   86.8098   -2.7334    0.3698 H   0  0  0  0  0  0  0  0  0  0  0  0
   84.8288   -4.5174    0.6009 H   0  0  0  0  0  0  0  0  0  0  0  0
   83.1599   -0.6624    0.1450 H   0  0  0  0  0  0  0  0  0  0  0  0
   82.2044   -4.3796    0.5954 H   0  0  0  0  0  0  0  0  0  0  0  0
   93.3588   -3.3903    0.3042 C   0  0  0  0  0  0  0  0  0  0  0  0
   92.3832   -2.4659    0.2088 C   0  0  0  0  0  0  0  0  0  0  0  0
   93.0575   -1.1895    0.0597 C   0  0  0  0  0  0  0  0  0  0  0  0
   92.3748    0.0368   -0.0741 C   0  0  0  0  0  0  0  0  0  0  0  0
   93.0187    1.2766   -0.2288 C   0  0  0  0  0  0  0  0  0  0  0  0
   92.4173    2.5532   -0.3788 C   0  0  0  0  0  0  0  0  0  0  0  0
   93.4253    3.4674   -0.4990 C   0  0  0  0  0  0  0  0  0  0  0  0
   94.6613    2.7674   -0.4235 C   0  0  0  0  0  0  0  0  0  0  0  0
   94.3633    1.4488   -0.2615 N   0  0  0  0  0  0  0  0  0  0  0  0
   95.9283    3.3304   -0.4975 C   0  0  0  0  0  0  0  0  0  0  0  0
   97.1563    2.6939   -0.4215 C   0  0  0  0  0  0  0  0  0  0  0  0
   98.4139    3.4169   -0.5068 C   0  0  0  0  0  0  0  0  0  0  0  0
   99.3896    2.4947   -0.3919 C   0  0  0  0  0  0  0  0  0  0  0  0
   98.7153    1.2188   -0.2395 C   0  0  0  0  0  0  0  0  0  0  0  0
   97.3809    1.3670   -0.2608 N   0  0  0  0  0  0  0  0  0  0  0  0
   99.3979   -0.0058   -0.0910 C   0  0  0  0  0  0  0  0  0  0  0  0
   98.7540   -1.2473    0.0499 C   0  0  0  0  0  0  0  0  0  0  0  0
   99.3554   -2.5242    0.1973 C   0  0  0  0  0  0  0  0  0  0  0  0
   98.3475   -3.4407    0.2988 C   0  0  0  0  0  0  0  0  0  0  0  0
   97.1113   -2.7415    0.2166 C   0  0  0  0  0  0  0  0  0  0  0  0
   97.4093   -1.4214    0.0664 N   0  0  0  0  0  0  0  0  0  0  0  0
   95.8444   -3.3055    0.2816 C   0  0  0  0  0  0  0  0  0  0  0  0
   94.6164   -2.6678    0.2142 C   0  0  0  0  0  0  0  0  0  0  0  0
   94.3919   -1.3395    0.0659 N   0  0  0  0  0  0  0  0  0  0  0  0
   93.2727   -4.4532    0.4238 H   0  0  0  0  0  0  0  0  0  0  0  0
   91.3186   -2.5962    0.2316 H   0  0  0  0  0  0  0  0  0  0  0  0
   91.3602    2.7338   -0.3919 H   0  0  0  0  0  0  0  0  0  0  0  0
   93.3310    4.5281   -0.6276 H   0  0  0  0  0  0  0  0  0  0  0  0
   95.0217    0.6826   -0.1734 H   0  0  0  0  0  0  0  0  0  0  0  0
   95.9570    4.4038   -0.6281 H   0  0  0  0  0  0  0  0  0  0  0  0
   98.5000    4.4788   -0.6352 H   0  0  0  0  0  0  0  0  0  0  0  0
  100.4542    2.6263   -0.4051 H   0  0  0  0  0  0  0  0  0  0  0  0
  100.4126   -2.7035    0.2203 H   0  0  0  0  0  0  0  0  0  0  0  0
   98.4419   -4.5022    0.4201 H   0  0  0  0  0  0  0  0  0  0  0  0
   96.7506   -0.6557   -0.0232 H   0  0  0  0  0  0  0  0  0  0  0  0
   95.8155   -4.3799    0.4032 H   0  0  0  0  0  0  0  0  0  0  0  0
  106.9106   -3.3716    0.4363 C   0  0  0  0  0  0  0  0  0  0  0  0
  105.9453   -2.4415    0.3000 C   0  0  0  0  0  0  0  0  0  0  0  0
  106.6334   -1.1717    0.1573 C   0  0  0  0  0  0  0  0  0  0  0  0
  105.9640    0.0584   -0.0064 C   0  0  0  0  0  0  0  0  0  0  0  0
  106.6213    1.2934   -0.1413 C   0  0  0  0  0  0  0  0  0  0  0  0
  106.0345    2.5750   -0.3052 C   0  0  0  0  0  0  0  0  0  0  0  0
  107.0525    3.4819   -0.3910 C   0  0  0  0  0  0  0  0  0  0  0  0
  108.2805    2.7719   -0.2818 C   0  0  0  0  0  0  0  0  0  0  0  0
  107.9676    1.4552   -0.1329 N   0  0  0  0  0  0  0  0  0  0  0  0
  109.5534    3.3246   -0.3221 C   0  0  0  0  0  0  0  0  0  0  0  0
  110.7743    2.6768   -0.2269 C   0  0  0  0  0  0  0  0  0  0  0  0
  112.0395    3.3885   -0.2930 C   0  0  0  0  0  0  0  0  0  0  0  0
  113.0052    2.4561   -0.1756 C   0  0  0  0  0  0  0  0  0  0  0  0
  112.3173    1.1859   -0.0364 C   0  0  0  0  0  0  0  0  0  0  0  0
  110.9846    1.3471   -0.0701 N   0  0  0  0  0  0  0  0  0  0  0  0
  112.9868   -0.0459    0.1140 C   0  0  0  0  0  0  0  0  0  0  0  0
  112.3292   -1.2793    0.2609 C   0  0  0  0  0  0  0  0  0  0  0  0
  112.9160   -2.5606    0.4275 C   0  0  0  0  0  0  0  0  0  0  0  0
  111.8977   -3.4653    0.5311 C   0  0  0  0  0  0  0  0  0  0  0  0
  110.6696   -2.7547    0.4280 C   0  0  0  0  0  0  0  0  0  0  0  0
  110.9826   -1.4394    0.2674 N   0  0  0  0  0  0  0  0  0  0  0  0
  109.3965   -3.3063    0.4778 C   0  0  0  0  0  0  0  0  0  0  0  0
  108.1758   -2.6596    0.3741 C   0  0  0  0  0  0  0  0  0  0  0  0
  107.9658   -1.3313    0.2048 N   0  0  0  0  0  0  0  0  0  0  0  0
  106.8129   -4.4324    0.5656 H   0  0  0  0  0  0  0  0  0  0  0  0
  104.8796   -2.5639    0.2923 H   0  0  0  0  0  0  0  0  0  0  0  0
  104.9796    2.7637   -0.3496 H   0  0  0  0  0  0  0  0  0  0  0  0
  106.9703    4.5437   -0.5183 H   0  0  0  0  0  0  0  0  0  0  0  0
  108.6172    0.6837   -0.0276 H   0  0  0  0  0  0  0  0  0  0  0  0
  109.5942    4.3984   -0.4463 H   0  0  0  0  0  0  0  0  0  0  0  0
  112.1370    4.4503   -0.4135 H   0  0  0  0  0  0  0  0  0  0  0  0
  114.0710    2.5776   -0.1770 H   0  0  0  0  0  0  0  0  0  0  0  0
  113.9710   -2.7505    0.4625 H   0  0  0  0  0  0  0  0  0  0  0  0
  111.9799   -4.5263    0.6655 H   0  0  0  0  0  0  0  0  0  0  0  0
  110.3328   -0.6678    0.1638 H   0  0  0  0  0  0  0  0  0  0  0  0
  109.3557   -4.3789    0.6116 H   0  0  0  0  0  0  0  0  0  0  0  0
  120.5490   -3.4069    0.4125 C   0  0  0  0  0  0  0  0  0  0  0  0
  119.5700   -2.4854    0.3229 C   0  0  0  0  0  0  0  0  0  0  0  0
  120.2396   -1.2066    0.1736 C   0  0  0  0  0  0  0  0  0  0  0  0
  119.5531    0.0181    0.0453 C   0  0  0  0  0  0  0  0  0  0  0  0
  120.1939    1.2600   -0.1060 C   0  0  0  0  0  0  0  0  0  0  0  0
  119.5896    2.5362   -0.2477 C   0  0  0  0  0  0  0  0  0  0  0  0
  120.5954    3.4528   -0.3672 C   0  0  0  0  0  0  0  0  0  0  0  0
  121.8331    2.7547   -0.3001 C   0  0  0  0  0  0  0  0  0  0  0  0
  121.5381    1.4348   -0.1425 N   0  0  0  0  0  0  0  0  0  0  0  0
  123.0984    3.3206   -0.3790 C   0  0  0  0  0  0  0  0  0  0  0  0
  124.3288    2.6870   -0.3151 C   0  0  0  0  0  0  0  0  0  0  0  0
  125.5837    3.4138   -0.4067 C   0  0  0  0  0  0  0  0  0  0  0  0
  126.5628    2.4938   -0.3039 C   0  0  0  0  0  0  0  0  0  0  0  0
  125.8933    1.2154   -0.1522 C   0  0  0  0  0  0  0  0  0  0  0  0
  124.5582    1.3600   -0.1624 N   0  0  0  0  0  0  0  0  0  0  0  0
  126.5799   -0.0082   -0.0142 C   0  0  0  0  0  0  0  0  0  0  0  0
  125.9390   -1.2512    0.1275 C   0  0  0  0  0  0  0  0  0  0  0  0
  126.5432   -2.5276    0.2671 C   0  0  0  0  0  0  0  0  0  0  0  0
  125.5372   -3.4456    0.3742 C   0  0  0  0  0  0  0  0  0  0  0  0
  124.2995   -2.7479    0.3029 C   0  0  0  0  0  0  0  0  0  0  0  0
  124.5947   -1.4272    0.1534 N   0  0  0  0  0  0  0  0  0  0  0  0
  123.0342   -3.3146    0.3760 C   0  0  0  0  0  0  0  0  0  0  0  0
  121.8039   -2.6804    0.3179 C   0  0  0  0  0  0  0  0  0  0  0  0
  121.5745   -1.3524    0.1737 N   0  0  0  0  0  0  0  0  0  0  0  0
  120.4668   -4.4703    0.5305 H   0  0  0  0  0  0  0  0  0  0  0  0
  118.5059   -2.6193    0.3500 H   0  0  0  0  0  0  0  0  0  0  0  0
  118.5321    2.7148   -0.2560 H   0  0  0  0  0  0  0  0  0  0  0  0
  120.4987    4.5139   -0.4902 H   0  0  0  0  0  0  0  0  0  0  0  0
  122.1979    0.6690   -0.0614 H   0  0  0  0  0  0  0  0  0  0  0  0
  123.1237    4.3947   -0.5047 H   0  0  0  0  0  0  0  0  0  0  0  0
  125.6659    4.4765   -0.5311 H   0  0  0  0  0  0  0  0  0  0  0  0
  127.6269    2.6284   -0.3248 H   0  0  0  0  0  0  0  0  0  0  0  0
  127.6008   -2.7055    0.2819 H   0  0  0  0  0  0  0  0  0  0  0  0
  125.6338   -4.5073    0.4921 H   0  0  0  0  0  0  0  0  0  0  0  0
  123.9349   -0.6614    0.0711 H   0  0  0  0  0  0  0  0  0  0  0  0
  123.0089   -4.3893    0.4956 H   0  0  0  0  0  0  0  0  0  0  0  0
  134.1179   -3.3509    0.4377 C   0  0  0  0  0  0  0  0  0  0  0  0
  133.1456   -2.4265    0.3121 C   0  0  0  0  0  0  0  0  0  0  0  0
  133.8242   -1.1513    0.1743 C   0  0  0  0  0  0  0  0  0  0  0  0
  133.1467    0.0756    0.0207 C   0  0  0  0  0  0  0  0  0  0  0  0
  133.7971    1.3144   -0.1127 C   0  0  0  0  0  0  0  0  0  0  0  0
  133.2036    2.5938   -0.2699 C   0  0  0  0  0  0  0  0  0  0  0  0
  134.2170    3.5056   -0.3565 C   0  0  0  0  0  0  0  0  0  0  0  0
  135.4489    2.8012   -0.2542 C   0  0  0  0  0  0  0  0  0  0  0  0
  135.1428    1.4825   -0.1091 N   0  0  0  0  0  0  0  0  0  0  0  0
  136.7183    3.3617   -0.2955 C   0  0  0  0  0  0  0  0  0  0  0  0
  137.9440    2.7223   -0.2035 C   0  0  0  0  0  0  0  0  0  0  0  0
  139.2041    3.4432   -0.2668 C   0  0  0  0  0  0  0  0  0  0  0  0
  140.1765    2.5176   -0.1510 C   0  0  0  0  0  0  0  0  0  0  0  0
  139.4977    1.2420   -0.0168 C   0  0  0  0  0  0  0  0  0  0  0  0
  138.1637    1.3939   -0.0510 N   0  0  0  0  0  0  0  0  0  0  0  0
  140.1750    0.0144    0.1293 C   0  0  0  0  0  0  0  0  0  0  0  0
  139.5245   -1.2238    0.2671 C   0  0  0  0  0  0  0  0  0  0  0  0
  140.1183   -2.5030    0.4249 C   0  0  0  0  0  0  0  0  0  0  0  0
  139.1051   -3.4140    0.5210 C   0  0  0  0  0  0  0  0  0  0  0  0
  137.8730   -2.7095    0.4226 C   0  0  0  0  0  0  0  0  0  0  0  0
  138.1788   -1.3915    0.2712 N   0  0  0  0  0  0  0  0  0  0  0  0
  136.6033   -3.2690    0.4702 C   0  0  0  0  0  0  0  0  0  0  0  0
  135.3780   -2.6298    0.3745 C   0  0  0  0  0  0  0  0  0  0  0  0
  135.1580   -1.3020    0.2147 N   0  0  0  0  0  0  0  0  0  0  0  0
  134.0281   -4.4131    0.5607 H   0  0  0  0  0  0  0  0  0  0  0  0
  132.0807   -2.5563    0.3087 H   0  0  0  0  0  0  0  0  0  0  0  0
  132.1477    2.7777   -0.3097 H   0  0  0  0  0  0  0  0  0  0  0  0
  134.1294    4.5675   -0.4798 H   0  0  0  0  0  0  0  0  0  0  0  0
  135.7944    0.7118   -0.0087 H   0  0  0  0  0  0  0  0  0  0  0  0
  136.7516    4.4361   -0.4163 H   0  0  0  0  0  0  0  0  0  0  0  0
  139.2941    4.5061   -0.3841 H   0  0  0  0  0  0  0  0  0  0  0  0
  141.2415    2.6466   -0.1513 H   0  0  0  0  0  0  0  0  0  0  0  0
  141.1744   -2.6870    0.4592 H   0  0  0  0  0  0  0  0  0  0  0  0
  139.1932   -4.4755    0.6477 H   0  0  0  0  0  0  0  0  0  0  0  0
  137.5253   -0.6223    0.1725 H   0  0  0  0  0  0  0  0  0  0  0  0
  136.5695   -4.3428    0.5967 H   0  0  0  0  0  0  0  0  0  0  0  0
  1  2  2  0  0  0  0
  2  3  1  0  0  0  0
  3  4  4  0  0  0  0
  4  5  4  0  0  0  0
  5  6  4  0  0  0  0
  6  7  2  0  0  0  0
  7  8  4  0  0  0  0
  5  9  4  0  0  0  0
  8  9  4  0  0  0  0
  8 10  4  0  0  0  0
 10 11  4  0  0  0  0
 11 12  1  0  0  0  0
 12 13  2  0  0  0  0
 13 14  1  0  0  0  0
 11 15  4  0  0  0  0
 14 15  4  0  0  0  0
 14 16  4  0  0  0  0
 16 17  4  0  0  0  0
 17 18  4  0  0  0  0
 18 19  2  0  0  0  0
 19 20  4  0  0  0  0
 17 21  4  0  0  0  0
 20 21  4  0  0  0  0
 20 22  4  0  0  0  0
  1 23  1  0  0  0  0
 22 23  4  0  0  0  0
  3 24  4  0  0  0  0
 23 24  4  0  0  0  0
  1 25  1  0  0  0  0
  2 26  1  0  0  0  0
  6 27  1  0  0  0  0
  7 28  1  0  0  0  0
  9 29  1  0  0  0  0
 10 30  1  0  0  0  0
 12 31  1  0  0  0  0
 13 32  1  0  0  0  0
 16 33  1  0  0  0  0
 18 34  1  0  0  0  0
 19 35  1  0  0  0  0
 21 36  1  0  0  0  0
 22 37  1  0  0  0  0
 38 39  2  0  0  0  0
 39 40  1  0  0  0  0
 40 41  4  0  0  0  0
 41 42  4  0  0  0  0
 42 43  4  0  0  0  0
 43 44  2  0  0  0  0
 44 45  4  0  0  0  0
 42 46  4  0  0  0  0
 45 46  4  0  0  0  0
 45 47  4  0  0  0  0
 47 48  4  0  0  0  0
 48 49  1  0  0  0  0
 49 50  2  0  0  0  0
 50 51  1  0  0  0  0
 48 52  4  0  0  0  0
 51 52  4  0  0  0  0
 51 53  4  0  0  0  0
 53 54  4  0  0  0  0
 54 55  4  0  0  0  0
 55 56  2  0  0  0  0
 56 57  4  0  0  0  0
 54 58  4  0  0  0  0
 57 58  4  0  0  0  0
 57 59  4  0  0  0  0
 38 60  1  0  0  0  0
 59 60  4  0  0  0  0
 40 61  4  0  0  0  0
 60 61  4  0  0  0  0
 38 62  1  0  0  0  0
 39 63  1  0  0  0  0
 43 64  1  0  0  0  0
 44 65  1  0  0  0  0
 46 66  1  0  0  0  0
 47 67  1  0  0  0  0
 49 68  1  0  0  0  0
 50 69  1  0  0  0  0
 53 70  1  0  0  0  0
 55 71  1  0  0  0  0
 56 72  1  0  0  0  0
 58 73  1  0  0  0  0
 59 74  1  0  0  0  0
  4 75  1  0  0  0  0
 75 76  3  0  0  0  0
 76 77  4  0  0  0  0
 77 78  3  0  0  0  0
 79 80  3  0  0  0  0
 80 81  4  0  0  0  0
 81 82  3  0  0  0  0
 83 84  3  0  0  0  0
 84 85  4  0  0  0  0
 85 86  3  0  0  0  0
 87 88  3  0  0  0  0
 88 89  4  0  0  0  0
 89 90  3  0  0  0  0
 91 92  3  0  0  0  0
 92 93  4  0  0  0  0
 93 94  3  0  0  0  0
 95 96  3  0  0  0  0
 96 97  4  0  0  0  0
 97 98  3  0  0  0  0
 99100  3  0  0  0  0
100101  4  0  0  0  0
 41102  1  0  0  0  0
101102  3  0  0  0  0
103104  2  0  0  0  0
104105  1  0  0  0  0
 78106  1  0  0  0  0
105106  4  0  0  0  0
106107  4  0  0  0  0
107108  4  0  0  0  0
108109  2  0  0  0  0
109110  4  0  0  0  0
107111  4  0  0  0  0
110111  4  0  0  0  0
110112  4  0  0  0  0
112113  4  0  0  0  0
113114  1  0  0  0  0
114115  2  0  0  0  0
115116  1  0  0  0  0
113117  4  0  0  0  0
116117  4  0  0  0  0
 79118  1  0  0  0  0
116118  4  0  0  0  0
118119  4  0  0  0  0
119120  4  0  0  0  0
120121  2  0  0  0  0
121122  4  0  0  0  0
119123  4  0  0  0  0
122123  4  0  0  0  0
122124  4  0  0  0  0
103125  1  0  0  0  0
124125  4  0  0  0  0
105126  4  0  0  0  0
125126  4  0  0  0  0
103127  1  0  0  0  0
104128  1  0  0  0  0
108129  1  0  0  0  0
109130  1  0  0  0  0
111131  1  0  0  0  0
112132  1  0  0  0  0
114133  1  0  0  0  0
115134  1  0  0  0  0
120135  1  0  0  0  0
121136  1  0  0  0  0
123137  1  0  0  0  0
124138  1  0  0  0  0
139140  2  0  0  0  0
140141  1  0  0  0  0
 82142  1  0  0  0  0
141142  4  0  0  0  0
142143  4  0  0  0  0
143144  4  0  0  0  0
144145  2  0  0  0  0
145146  4  0  0  0  0
143147  4  0  0  0  0
146147  4  0  0  0  0
146148  4  0  0  0  0
148149  4  0  0  0  0
149150  1  0  0  0  0
150151  2  0  0  0  0
151152  1  0  0  0  0
149153  4  0  0  0  0
152153  4  0  0  0  0
 83154  1  0  0  0  0
152154  4  0  0  0  0
154155  4  0  0  0  0
155156  4  0  0  0  0
156157  2  0  0  0  0
157158  4  0  0  0  0
155159  4  0  0  0  0
158159  4  0  0  0  0
158160  4  0  0  0  0
139161  1  0  0  0  0
160161  4  0  0  0  0
141162  4  0  0  0  0
161162  4  0  0  0  0
139163  1  0  0  0  0
140164  1  0  0  0  0
144165  1  0  0  0  0
145166  1  0  0  0  0
147167  1  0  0  0  0
148168  1  0  0  0  0
150169  1  0  0  0  0
151170  1  0  0  0  0
156171  1  0  0  0  0
157172  1  0  0  0  0
159173  1  0  0  0  0
160174  1  0  0  0  0
175176  2  0  0  0  0
176177  1  0  0  0  0
 86178  1  0  0  0  0
177178  4  0  0  0  0
178179  4  0  0  0  0
179180  4  0  0  0  0
180181  2  0  0  0  0
181182  4  0  0  0  0
179183  4  0  0  0  0
182183  4  0  0  0  0
182184  4  0  0  0  0
184185  4  0  0  0  0
185186  1  0  0  0  0
186187  2  0  0  0  0
187188  1  0  0  0  0
185189  4  0  0  0  0
188189  4  0  0  0  0
 87190  1  0  0  0  0
188190  4  0  0  0  0
190191  4  0  0  0  0
191192  4  0  0  0  0
192193  2  0  0  0  0
193194  4  0  0  0  0
191195  4  0  0  0  0
194195  4  0  0  0  0
194196  4  0  0  0  0
175197  1  0  0  0  0
196197  4  0  0  0  0
177198  4  0  0  0  0
197198  4  0  0  0  0
175199  1  0  0  0  0
176200  1  0  0  0  0
180201  1  0  0  0  0
181202  1  0  0  0  0
183203  1  0  0  0  0
184204  1  0  0  0  0
186205  1  0  0  0  0
187206  1  0  0  0  0
192207  1  0  0  0  0
193208  1  0  0  0  0
195209  1  0  0  0  0
196210  1  0  0  0  0
211212  2  0  0  0  0
212213  1  0  0  0  0
 90214  1  0  0  0  0
213214  4  0  0  0  0
214215  4  0  0  0  0
215216  4  0  0  0  0
216217  2  0  0  0  0
217218  4  0  0  0  0
215219  4  0  0  0  0
218219  4  0  0  0  0
218220  4  0  0  0  0
220221  4  0  0  0  0
221222  1  0  0  0  0
222223  2  0  0  0  0
223224  1  0  0  0  0
221225  4  0  0  0  0
224225  4  0  0  0  0
 91226  1  0  0  0  0
224226  4  0  0  0  0
226227  4  0  0  0  0
227228  4  0  0  0  0
228229  2  0  0  0  0
229230  4  0  0  0  0
227231  4  0  0  0  0
230231  4  0  0  0  0
230232  4  0  0  0  0
211233  1  0  0  0  0
232233  4  0  0  0  0
213234  4  0  0  0  0
233234  4  0  0  0  0
211235  1  0  0  0  0
212236  1  0  0  0  0
216237  1  0  0  0  0
217238  1  0  0  0  0
219239  1  0  0  0  0
220240  1  0  0  0  0
222241  1  0  0  0  0
223242  1  0  0  0  0
228243  1  0  0  0  0
229244  1  0  0  0  0
231245  1  0  0  0  0
232246  1  0  0  0  0
247248  2  0  0  0  0
248249  1  0  0  0  0
 94250  1  0  0  0  0
249250  4  0  0  0  0
250251  4  0  0  0  0
251252  4  0  0  0  0
252253  2  0  0  0  0
253254  4  0  0  0  0
251255  4  0  0  0  0
254255  4  0  0  0  0
254256  4  0  0  0  0
256257  4  0  0  0  0
257258  1  0  0  0  0
258259  2  0  0  0  0
259260  1  0  0  0  0
257261  4  0  0  0  0
260261  4  0  0  0  0
 95262  1  0  0  0  0
260262  4  0  0  0  0
262263  4  0  0  0  0
263264  4  0  0  0  0
264265  2  0  0  0  0
265266  4  0  0  0  0
263267  4  0  0  0  0
266267  4  0  0  0  0
266268  4  0  0  0  0
247269  1  0  0  0  0
268269  4  0  0  0  0
249270  4  0  0  0  0
269270  4  0  0  0  0
247271  1  0  0  0  0
248272  1  0  0  0  0
252273  1  0  0  0  0
253274  1  0  0  0  0
255275  1  0  0  0  0
256276  1  0  0  0  0
258277  1  0  0  0  0
259278  1  0  0  0  0
264279  1  0  0  0  0
265280  1  0  0  0  0
267281  1  0  0  0  0
268282  1  0  0  0  0
283284  2  0  0  0  0
284285  1  0  0  0  0
 98286  1  0  0  0  0
285286  4  0  0  0  0
286287  4  0  0  0  0
287288  4  0  0  0  0
288289  2  0  0  0  0
289290  4  0  0  0  0
287291  4  0  0  0  0
290291  4  0  0  0  0
290292  4  0  0  0  0
292293  4  0  0  0  0
293294  1  0  0  0  0
294295  2  0  0  0  0
295296  1  0  0  0  0
293297  4  0  0  0  0
296297  4  0  0  0  0
 99298  1  0  0  0  0
296298  4  0  0  0  0
298299  4  0  0  0  0
299300  4  0  0  0  0
300301  2  0  0  0  0
301302  4  0  0  0  0
299303  4  0  0  0  0
302303  4  0  0  0  0
302304  4  0  0  0  0
283305  1  0  0  0  0
304305  4  0  0  0  0
285306  4  0  0  0  0
305306  4  0  0  0  0
283307  1  0  0  0  0
284308  1  0  0  0  0
288309  1  0  0  0  0
289310  1  0  0  0  0
291311  1  0  0  0  0
292312  1  0  0  0  0
294313  1  0  0  0  0
295314  1  0  0  0  0
300315  1  0  0  0  0
301316  1  0  0  0  0
303317  1  0  0  0  0
304318  1  0  0  0  0
M  END
