74

Co 9.228865 -0.046495 0.012600
C 11.631743 -3.372952 1.008180
C 12.608437 -2.467536 0.775471
C 11.953846 -1.257324 0.381633
C 12.649455 -0.095859 0.045648
C 11.993950 1.095126 -0.268425
C 12.691171 2.304392 -0.585870
C 11.746558 3.256724 -0.755791
C 10.482086 2.616014 -0.556136
N 10.644142 1.286344 -0.269501
C 9.279112 3.282496 -0.645540
C 8.056786 2.659615 -0.518777
C 6.807335 3.348474 -0.661307
C 5.839053 2.413820 -0.548328
C 6.504023 1.162678 -0.326912
N 7.860747 1.324161 -0.301496
C 5.832199 -0.030543 -0.169518
C 6.470354 -1.223688 0.093092
C 5.770364 -2.457899 0.301301
C 6.706673 -3.384762 0.598346
C 7.972262 -2.712040 0.559863
N 7.818532 -1.391730 0.240578
C 9.168883 -3.339816 0.828741
C 10.390739 -2.707167 0.751189
N 10.598496 -1.403985 0.383151
H 11.720510 -4.395271 1.320563
H 13.670832 -2.579414 0.868336
H 13.757373 2.387041 -0.666609
H 11.871497 4.294131 -0.998180
H 9.296241 4.343052 -0.845790
H 6.712059 4.403383 -0.831882
H 4.774340 2.533566 -0.603268
H 4.755026 -0.027176 -0.236934
H 4.705790 -2.570894 0.231237
H 6.579494 -4.426085 0.823094
H 9.150694 -4.384158 1.101113
C 14.052604 -0.112136 0.054745
C 15.264487 -0.113154 0.072873
Co 20.066949 0.046722 -0.018346
C 17.553159 3.158987 1.281428
C 16.609592 2.249725 0.945663
C 17.309481 1.099096 0.460743
C 16.666762 -0.086586 0.097535
C 17.379736 -1.259733 -0.154349
C 16.751468 -2.531956 -0.340911
C 17.747288 -3.444781 -0.410785
C 18.975578 -2.715994 -0.312513
N 18.737805 -1.376666 -0.155770
C 20.217467 -3.302031 -0.442892
C 21.383617 -2.574867 -0.554212
C 22.650205 -3.160770 -0.883922
C 23.515078 -2.136602 -1.053307
C 22.781543 -0.933866 -0.785278
N 21.479141 -1.213104 -0.481714
C 23.357033 0.319843 -0.770147
C 22.690091 1.441321 -0.322883
C 23.327862 2.709022 -0.115724
C 22.409384 3.511135 0.466322
C 21.204290 2.741698 0.572385
N 21.386949 1.477592 0.086595
C 20.013338 3.253208 1.043218
C 18.818615 2.568872 0.965491
N 18.657288 1.297499 0.481190
H 17.424681 4.143256 1.687956
H 15.543073 2.318999 1.034988
H 15.691392 -2.682505 -0.399906
H 17.678264 -4.507725 -0.537281
H 20.270056 -4.376071 -0.536871
H 22.823616 -4.214539 -0.986628
H 24.554814 -2.167824 -1.316028
H 24.395019 0.414294 -1.050272
H 24.347466 2.924753 -0.370346
H 22.509056 4.530767 0.784864
H 20.001914 4.262219 1.426437
