148

Cu 24.391958 0.041229 -0.012545
C 26.720949 -3.105564 1.310144
C 27.637057 -2.161356 1.259862
C 27.225877 -1.107452 0.338570
C 27.844748 0.016894 -0.007840
C 27.140705 1.236842 -0.371945
C 27.468816 2.196897 -1.219419
C 26.434036 3.213182 -1.236316
C 25.497768 2.836720 -0.389425
N 25.899758 1.603709 0.174392
C 24.236694 3.481720 -0.010273
C 23.141477 2.846937 0.340487
C 22.067851 3.164893 1.309515
C 21.230288 2.168139 1.232349
C 21.668586 1.164456 0.251897
N 22.773524 1.603309 -0.232395
C 21.057751 -0.088815 -0.161651
C 21.721911 -1.193321 -0.416076
C 21.348063 -2.256263 -1.373603
C 22.296810 -3.150019 -1.284584
C 23.282534 -2.712569 -0.301706
N 22.929488 -1.566764 0.195091
C 24.513422 -3.368639 0.144015
C 25.636463 -2.722778 0.411136
N 25.965063 -1.475337 -0.187267
H 26.781211 -4.015344 1.927691
H 28.553384 -2.201306 1.837910
H 28.396181 2.213693 -1.820562
H 26.450935 4.117871 -1.848938
H 24.188971 4.576522 -0.014050
H 22.015030 4.043618 1.934508
H 20.318658 2.132469 1.849673
H 19.959500 -0.085904 -0.260922
H 20.479207 -2.308728 -2.022553
H 22.293964 -4.066327 -1.883343
H 24.477940 -4.464441 0.255940
Cu 59.369882 -0.006147 -0.016978
C 57.040891 2.840645 1.866527
C 56.124784 1.922156 1.641953
C 56.535964 1.057459 0.541139
C 55.917093 0.016894 -0.007840
C 56.621135 -1.114331 -0.591943
C 56.293025 -1.900503 -1.602809
C 57.327804 -2.896012 -1.807950
C 58.264073 -2.683196 -0.905920
N 57.862082 -1.576184 -0.123148
C 59.525147 -3.387337 -0.653006
C 60.620364 -2.828644 -0.190573
C 61.693990 -3.320849 0.702649
C 62.531553 -2.327082 0.811734
C 62.093255 -1.158934 0.034499
N 60.988317 -1.500326 -0.522800
C 62.704090 0.149302 -0.139371
C 62.039929 1.281835 -0.184477
C 62.413778 2.503961 -0.928192
C 61.465031 3.365688 -0.674913
C 60.479307 2.753493 0.209750
N 60.832353 1.535415 0.485360
C 59.248419 3.315488 0.769445
C 58.125378 2.631283 0.912112
N 57.796777 1.516508 0.092678
H 56.980629 3.620070 2.642131
H 55.208457 1.854175 2.217379
H 55.365660 -1.805486 -2.196634
H 57.310905 -3.671347 -2.577770
H 59.572870 -4.462435 -0.859820
H 61.746811 -4.300266 1.153776
H 63.443183 -2.406554 1.424960
H 63.802340 0.164857 -0.237458
H 63.282634 2.675905 -1.556144
H 61.467877 4.377169 -1.093291
H 59.283901 4.371504 1.082714
C 30.459196 0.016894 -0.007840
C 31.675401 0.016894 -0.007840
C 41.272818 0.016894 -0.007840
C 42.489023 0.016894 -0.007840
C 52.086440 0.016894 -0.007840
C 53.302645 0.016894 -0.007840
Cu 36.505605 0.029695 0.005646
C 34.225795 -3.231752 -0.904020
C 33.269585 -2.332402 -1.006046
C 33.661959 -1.170097 -0.203530
C 33.026843 -0.018824 0.008736
C 33.712300 1.255775 0.234965
C 33.377010 2.334375 0.939205
C 34.401551 3.353692 0.848624
C 35.352148 2.856767 0.075259
N 34.975154 1.540162 -0.340884
C 36.599288 3.468469 -0.341606
C 37.700840 2.801212 -0.673378
C 38.694386 3.053196 -1.707548
C 39.588269 2.092337 -1.606064
C 39.208571 1.180453 -0.502087
N 38.113656 1.629772 0.005280
C 39.865778 -0.018824 0.008736
C 39.242367 -1.088006 0.470252
C 39.621079 -2.020122 1.545728
C 38.680411 -2.934268 1.631594
C 37.672109 -2.638489 0.634167
N 38.009884 -1.585111 -0.015128
C 36.419716 -3.345496 0.302974
C 35.305839 -2.748800 -0.044368
N 34.923727 -1.466042 0.373315
H 34.226139 -4.222826 -1.395254
H 32.361051 -2.454096 -1.587194
H 32.452158 2.452727 1.516131
H 34.428846 4.342856 1.305274
H 36.685228 4.565847 -0.403629
H 38.727058 3.859412 -2.434372
H 40.481331 1.979369 -2.239838
H 40.535830 -1.945715 2.155898
H 38.699457 -3.747876 2.339861
H 36.458201 -4.445455 0.362010
Cu 47.319227 0.029695 0.005646
C 45.039417 -3.231752 -0.904020
C 44.083207 -2.332402 -1.006046
C 44.475581 -1.170097 -0.203530
C 43.840465 -0.018824 0.008736
C 44.525922 1.255775 0.234965
C 44.190632 2.334375 0.939205
C 45.215173 3.353692 0.848624
C 46.165770 2.856767 0.075259
N 45.788776 1.540162 -0.340884
C 47.412910 3.468469 -0.341606
C 48.514462 2.801212 -0.673378
C 49.508008 3.053196 -1.707548
C 50.401891 2.092337 -1.606064
C 50.022193 1.180453 -0.502087
N 48.927278 1.629772 0.005280
C 50.679400 -0.018824 0.008736
C 50.055989 -1.088006 0.470252
C 50.434701 -2.020122 1.545728
C 49.494033 -2.934268 1.631594
C 48.485731 -2.638489 0.634167
N 48.823506 -1.585111 -0.015128
C 47.233338 -3.345496 0.302974
C 46.119461 -2.748800 -0.044368
N 45.737349 -1.466042 0.373315
H 45.039761 -4.222826 -1.395254
H 43.174673 -2.454096 -1.587194
H 43.265780 2.452727 1.516131
H 45.242468 4.342856 1.305274
H 47.498850 4.565847 -0.403629
H 49.540680 3.859412 -2.434372
H 51.294953 1.979369 -2.239838
H 51.349451 -1.945715 2.155898
H 49.513079 -3.747876 2.339861
H 47.271822 -4.445455 0.362010
