148
 xtb: 6.4.1 (bd6e46d)
Cu       25.53101032347955   -0.00948112017085   -0.00077777921877
C        28.02852242394534   -2.77677431362389    2.03324807533559
C        28.98874553439743   -2.00891893064423    1.46612355733037
C        28.31136851486628   -1.00363237566277    0.69856675582431
C        28.96901238699245   -0.01890906424153   -0.05086102837200
C        28.30213540659924    0.96616880729632   -0.79188121024572
C        28.96949635202288    1.95331560743539   -1.59107619142708
C        28.00262267052973    2.72445227149480   -2.14242503310742
C        26.74693602066356    2.20447783535560   -1.68211278770377
N        26.96141238792473    1.13285622299603   -0.87079404874901
C        25.51715422991263    2.73698134359310   -2.02513026410903
C        24.29320036382375    2.25004905465122   -1.60384818068474
C        23.02691885699474    2.82469831228105   -1.96884054731082
C        22.07271051893959    2.07317247883088   -1.37407528223247
C        22.75509735946972    1.03734727238755   -0.64677964329989
N        24.09594070056764    1.16990087714081   -0.80429906220917
C        22.11706997327611    0.05333253408708    0.08759376164562
C        22.76291305045166   -0.95331809423454    0.78363954178652
C        22.08860954297325   -1.97674738243578    1.53559738964691
C        23.04950158173599   -2.76475707191860    2.06957030946825
C        24.31171963389337   -2.22262562826473    1.64580994760250
N        24.10593602149833   -1.12998694126577    0.86875433121547
C        25.54100425021087   -2.74566071246996    2.00350703428455
C        26.76686655545220   -2.23348661048374    1.61838250415696
N        26.97190418249426   -1.15642217891033    0.81291917473151
H        28.13711826207922   -3.65262495177456    2.64132532837338
H        30.05033114166885   -2.10801053614359    1.53852118031750
H        30.03782376883846    2.02858995254577   -1.70167782644585
H        28.11889027078630    3.59159349581891   -2.76840888484641
H        25.52230660022617    3.63814512061746   -2.63213138614408
H        22.91700035958149    3.73307940496405   -2.54905745695701
H        21.01159942151761    2.22692445881275   -1.38060103547011
H        21.03754044476822    0.08884882291667    0.12162019957734
H        21.01790639004347   -2.06130781638297    1.60683115912880
H        22.92946204633312   -3.64889138510425    2.65103507226214
H        25.53749485809313   -3.63912941060617    2.60156102176509
Cu       58.25091909758970    0.01036680904099    0.00298123600208
C        55.76913180823504    2.88966811795538    1.93524897096691
C        54.80388082280090    2.08638658469303    1.42873163880319
C        55.47302465103176    1.05006403853598    0.69607431101006
C        54.80883238379835    0.02705618192937    0.00454067233951
C        55.46958581256611   -0.99978272267298   -0.68455174747661
C        54.79719976390283   -2.03717191208169   -1.41267899000170
C        55.75981748357615   -2.84559197315060   -1.91598320227460
C        57.01896731671319   -2.29576288792079   -1.50181741911364
N        56.80919753388334   -1.17397511218193   -0.76183491294641
C        58.24688590779595   -2.84660872911279   -1.82288603072866
C        59.47585435136317   -2.32193428175449   -1.46524337611244
C        60.73961963932998   -2.90827636731073   -1.82052570246970
C        61.69953870676554   -2.10141952019933   -1.31359319762927
C        61.02341950103295   -1.02108122933192   -0.64777512810249
N        59.68067236355552   -1.18568292821199   -0.75346569611117
C        61.66669916488290    0.02450305198004   -0.00882087446147
C        61.02664820705953    1.06847185017541    0.63598287446894
C        61.70602893711865    2.14817575181567    1.29948721085407
C        60.74867393942350    2.95169480632871    1.81646666431436
C        59.48318629602326    2.36447311476389    1.46881158659592
N        59.68473671936598    1.22879563197298    0.75230345132440
C        58.25608696765127    2.88717534290123    1.83570695223767
C        57.02646547237296    2.33871405096497    1.51709922614008
N        56.81336776264905    1.21914002202584    0.77303398170717
H        55.65439054270355    3.77979333302125    2.52943268549815
H        53.73733680766215    2.16769700988254    1.53658784530119
H        53.73471832476343   -2.11290154702306   -1.51838063838776
H        55.64992545195816   -3.73071007771882   -2.50543520986177
H        58.24750175576082   -3.75362515790388   -2.39993087673079
H        60.85582133279938   -3.80871392288098   -2.37805897850338
H        62.76694432010455   -2.19662960838658   -1.37160716541045
H        62.74597292719046    0.03741173164056   -0.01446623123699
H        62.76911084126932    2.26921486151228    1.34650566862333
H        60.85987263904762    3.87024265629327    2.37387957981677
H        58.25209085060964    3.80529569308621    2.41587045182612
C        30.37130300732827   -0.01688247839205   -0.05657330428955
C        31.58424553461866   -0.01813436056515   -0.05855705663310
C        41.28099905620546    0.06425444092752   -0.01703593813192
C        42.49448289076297    0.06551582977805   -0.02127240233967
C        52.19339811785621    0.03845004525286   -0.00311212529277
C        53.40660444862667    0.03123893007392    0.00247328320672
Cu       36.43117955650180    0.03860106451952   -0.03257658915194
C        33.97324727346098   -3.41392165452071    0.46527934733037
C        33.00007102133893   -2.48884977792468    0.28878424786504
C        33.65888684820609   -1.22408616958162    0.13015538759736
C        32.98603515367704   -0.00802607061239   -0.05486797141087
C        33.63909046124977    1.21988696922504   -0.23385369712100
C        32.95938045458659    2.47299423049753   -0.39730130840041
C        33.91764407682242    3.41538678587880   -0.56329330345959
C        35.18025498014804    2.73692365643878   -0.49389041255475
N        34.97715480424454    1.40875411072416   -0.28535297281320
C        36.40529717513198    3.36323406750773   -0.63627779550613
C        37.64044397940224    2.74550866787836   -0.55680727830175
C        38.89162962721399    3.42494932932859   -0.73501315993405
C        39.86504583074687    2.49826278174066   -0.56824745683546
C        39.20623804079857    1.25663148444928   -0.28049238148222
N        37.86499596252887    1.43152841706581   -0.28891452174166
C        39.87970721880794    0.05419203403948   -0.01960565122303
C        39.22509900831670   -1.15962728537101    0.23733934846977
C        39.90270561546134   -2.38874874779823    0.53485633089898
C        38.94435479067989   -3.33276127017716    0.69157127753968
C        37.68326823438795   -2.67622261165195    0.49805467903773
N        37.88720968174155   -1.35655004360984    0.23223506787623
C        36.45889382295208   -3.31665157483277    0.56419738620487
C        35.22416904425334   -2.71318104131564    0.40756666771518
N        34.99963551683938   -1.38730801824592    0.19547890900731
H        33.87151676206099   -4.47691736703463    0.62199078441785
H        31.93767262904392   -2.63631728739547    0.25144477112664
H        31.89696348916850    2.58958491705157   -0.37125600396560
H        33.80289804329834    4.46261819900363   -0.72250953450681
H        36.39948562819045    4.41581485495281   -0.84376409627757
H        38.99499781602881    4.45419517660255   -0.98492581944784
H        40.92920698662891    2.60584216709273   -0.65924155597676
H        40.96526628314528   -2.49815999258003    0.63424991191371
H        39.05980110478176   -4.37943289812510    0.93711981398263
H        36.46663397126125   -4.38597442359815    0.76711703237021
Cu       47.34379556708793    0.06532109040765   -0.02291418436760
C        44.84992984999641   -3.29846652242725   -0.81287352967374
C        43.88640326355715   -2.36369316513745   -0.63411073519629
C        44.55735412944405   -1.13790810379564   -0.30908509592217
C        43.89576377661392    0.06537602844439   -0.02193456921402
C        44.56286189875911    1.26596977953811    0.26214555993201
C        43.89871939418867    2.49731680178967    0.57981523623802
C        44.86748353629758    3.42767655370989    0.75347338348187
C        46.12139476003247    2.76029502452639    0.55032511334766
N        45.90318292556139    1.44897980932289    0.26411773224179
C        47.35286286555606    3.38625295999945    0.62306123164071
C        48.58082100416554    2.77128123211148    0.45821101349969
C        49.83878685965879    3.45906491985858    0.51852545594532
C        50.80231507120559    2.52495797443669    0.33692498098315
C        50.13097077779686    1.26744475409636    0.17376084689440
N        48.79204027753207    1.44545841445934    0.23904645415806
C        50.79170361776209    0.04382199266748   -0.00838997645366
C        50.12388567817369   -1.17484015409078   -0.19819522562291
C        50.78779981651986   -2.43619227285646   -0.36154630459565
C        49.81945681425169   -3.36260051663401   -0.55657579868499
C        48.56591504209808   -2.66652328781782   -0.50248899425305
N        48.78406842389739   -1.34243918940521   -0.27535250026941
C        47.33499929003719   -3.27264213318002   -0.67736950281772
C        46.10730622383308   -2.63963587703743   -0.60431288110060
N        45.89610718407837   -1.32706749261688   -0.31104604918436
H        44.74278130550731   -4.34899254917002   -1.03742006954768
H        42.82588946096829   -2.48386538621308   -0.70744558353645
H        42.83336134721899    2.60406865287241    0.65327993838834
H        44.75709562731765    4.46411027507496    0.97569298938794
H        47.35090493582548    4.44715255268918    0.80337350282625
H        49.94560250504424    4.51560939964921    0.65121727444330
H        51.86280793714811    2.65712355979030    0.28548866206655
H        51.85234788243942   -2.57695714180208   -0.29932006293922
H        49.92965998434946   -4.42412704440532   -0.69066522099679
H        47.33633345699704   -4.34302825827544   -0.86003300663248
