80

C 5.371726 3.843580 0.853467
C 4.429399 2.944414 0.653888
C 5.076900 1.730002 0.250712
C 4.679431 0.440549 -0.100414
C 5.496509 -0.623099 -0.521345
C 5.064685 -1.395297 -1.627810
C 6.027807 -2.338640 -1.832611
C 7.015988 -2.111020 -0.843343
N 6.673506 -1.074069 -0.064801
C 8.144599 -2.950252 -0.825494
C 9.465510 -2.613167 -0.666102
C 10.742750 -3.308317 -0.649098
C 11.694776 -2.410780 -0.440842
C 11.080821 -1.109123 -0.314870
N 9.754709 -1.314344 -0.460842
C 11.448878 0.198384 -0.099172
C 10.648146 1.285639 0.292573
C 11.146656 2.161642 1.287585
C 10.183333 3.105504 1.482348
C 9.124935 2.775222 0.598408
N 9.429363 1.676327 -0.108681
C 7.979034 3.590709 0.596246
C 6.649233 3.206065 0.576473
N 6.390148 1.947374 0.223354
H 5.266973 4.869990 1.164188
H 3.365834 3.056913 0.761161
H 4.137627 -1.283022 -2.220206
H 6.010077 -3.117029 -2.618124
H 7.247161 -0.673243 0.805847
H 8.003989 -4.050983 -0.971930
H 10.845274 -4.379614 -0.787750
H 12.759130 -2.586986 -0.370698
H 12.547099 0.356194 -0.255198
H 12.119732 2.117445 1.814616
H 10.242886 3.953634 2.189997
H 8.798447 1.191834 -0.893163
H 8.101936 4.699368 0.631001
C 3.221977 0.248339 -0.024146
C 2.026299 0.094327 0.015975
C 0.622264 -0.061705 0.054053
C -0.577985 -0.174841 0.076254
C -1.985432 -0.283404 0.089578
C -3.215521 -0.355489 0.098184
C -10.680659 3.013410 -1.746958
C -11.619734 2.271239 -1.178283
C -11.035086 1.111727 -0.536568
C -11.482093 0.016310 0.191463
C -10.720131 -1.095129 0.652343
C -11.156469 -2.427507 0.488779
C -10.216701 -3.253508 1.001481
C -9.195265 -2.415241 1.483731
N -9.530598 -1.132714 1.259970
C -8.059696 -2.992462 2.071840
C -6.703297 -2.667944 1.838749
C -5.449848 -3.213462 2.299502
C -4.501502 -2.481489 1.737236
C -5.112239 -1.468680 0.918244
N -6.423162 -1.662259 1.044216
C -4.648352 -0.406464 0.086830
C -5.455181 0.467661 -0.667471
C -5.038349 0.754978 -1.981287
C -5.976919 1.579451 -2.485600
C -6.966792 1.800964 -1.492913
N -6.611368 1.109254 -0.400833
C -8.060565 2.611576 -1.809892
C -9.408888 2.356375 -1.496248
N -9.733674 1.271449 -0.790998
H -10.815973 3.933700 -2.295661
H -12.700775 2.471750 -1.171928
H -12.535596 -0.024937 0.421002
H -12.122985 -2.737472 0.018615
H -10.259275 -4.348504 1.034536
H -8.894581 -0.241173 1.567917
H -8.193011 -3.833582 2.808056
H -5.365757 -4.054394 2.969678
H -3.413202 -2.601525 1.855996
H -4.130650 0.395453 -2.505927
H -5.921145 1.985435 -3.509763
H -7.170484 1.093155 0.563635
H -7.946608 3.535530 -2.366786
