115

Co 12.976270 0.033735 -0.008924
C 15.305261 -3.113058 1.313765
C 16.221368 -2.168850 1.263483
C 15.810189 -1.114946 0.342191
C 16.429059 0.009400 -0.004219
C 15.725017 1.229348 -0.368324
C 16.053127 2.189403 -1.215798
C 15.018348 3.205688 -1.232696
C 14.082080 2.829226 -0.385804
N 14.484070 1.596215 0.178013
C 12.821005 3.474225 -0.006652
C 11.725788 2.839443 0.344108
C 10.652162 3.157399 1.313136
C 9.814600 2.160645 1.235970
C 10.252897 1.156962 0.255518
N 11.357835 1.595815 -0.228774
C 9.642062 -0.096309 -0.158030
C 10.306223 -1.200815 -0.412455
C 9.932374 -2.263757 -1.369982
C 10.881121 -3.157513 -1.280963
C 11.866845 -2.720063 -0.298085
N 11.513799 -1.574258 0.198712
C 13.097733 -3.376133 0.147636
C 14.220775 -2.730272 0.414757
N 14.549375 -1.482831 -0.183647
H 15.365523 -4.022839 1.931311
H 17.137695 -2.208800 1.841531
H 16.980493 2.206198 -1.816941
H 15.035247 4.110377 -1.845317
H 12.773282 4.569028 -0.010430
H 10.599341 4.036124 1.938128
H 8.902969 2.124975 1.853294
H 8.543812 -0.093398 -0.257301
H 9.063518 -2.316222 -2.018932
H 10.878275 -4.073821 -1.879722
H 13.062251 -4.471935 0.259561
Co 42.861701 -0.013641 -0.013357
C 40.532710 2.833151 1.870148
C 39.616602 1.914662 1.645574
C 40.027782 1.049965 0.544760
C 39.408911 0.009400 -0.004219
C 40.112954 -1.121825 -0.588322
C 39.784843 -1.907997 -1.599189
C 40.819623 -2.903506 -1.804329
C 41.755891 -2.690690 -0.902299
N 41.353901 -1.583678 -0.119527
C 43.016965 -3.394831 -0.649385
C 44.112183 -2.836138 -0.186952
C 45.185808 -3.328343 0.706270
C 46.023371 -2.334576 0.815355
C 45.585073 -1.166428 0.038120
N 44.480135 -1.507820 -0.519179
C 46.195908 0.141808 -0.135750
C 45.531748 1.274341 -0.180856
C 45.905596 2.496467 -0.924571
C 44.956849 3.358194 -0.671293
C 43.971125 2.745999 0.213371
N 44.324171 1.527921 0.488981
C 42.740237 3.307994 0.773065
C 41.617196 2.623789 0.915733
N 41.288596 1.509014 0.096298
H 40.472448 3.612576 2.645752
H 38.700275 1.846681 2.221000
H 38.857478 -1.812980 -2.193013
H 40.802724 -3.678841 -2.574149
H 43.064688 -4.469929 -0.856199
H 45.238630 -4.307760 1.157397
H 46.935001 -2.414048 1.428580
H 47.294159 0.157363 -0.233837
H 46.774452 2.668410 -1.552524
H 44.959695 4.369675 -1.089670
H 42.775720 4.364010 1.086334
C 19.323763 0.007364 -0.005331
C 20.531740 0.014819 -0.003636
C 21.950507 0.015516 0.001501
C 23.166024 0.007364 -0.005331
C 32.673913 0.007364 -0.005331
C 33.881890 0.014819 -0.003636
C 35.300658 0.015516 0.001501
C 36.516174 0.007364 -0.005331
Co 27.954605 0.027500 0.006808
C 25.674794 -3.233948 -0.902858
C 24.718585 -2.334597 -1.004885
C 25.110959 -1.172292 -0.202369
C 24.475843 -0.021020 0.009897
C 25.161300 1.253580 0.236127
C 24.826010 2.332180 0.940367
C 25.850551 3.351497 0.849786
C 26.801148 2.854572 0.076421
N 26.424154 1.537967 -0.339722
C 28.048288 3.466273 -0.340445
C 29.149839 2.799016 -0.672216
C 30.143386 3.051001 -1.706386
C 31.037269 2.090142 -1.604902
C 30.657571 1.178258 -0.500925
N 29.562656 1.627577 0.006442
C 31.314778 -0.021020 0.009897
C 30.691366 -1.090202 0.471414
C 31.070079 -2.022317 1.546890
C 30.129410 -2.936463 1.632756
C 29.121109 -2.640684 0.635329
N 29.458884 -1.587307 -0.013966
C 27.868716 -3.347692 0.304135
C 26.754839 -2.750995 -0.043206
N 26.372727 -1.468238 0.374477
H 25.675139 -4.225021 -1.394093
H 23.810051 -2.456291 -1.586033
H 23.901157 2.450531 1.517293
H 25.877846 4.340661 1.306436
H 28.134228 4.563651 -0.402468
H 30.176058 3.857217 -2.433210
H 31.930330 1.977174 -2.238676
H 31.984829 -1.947911 2.157060
H 30.148457 -3.750071 2.341023
H 27.907200 -4.447651 0.363172
