154

Zn 21.717547 0.001858 -0.010133
C 24.249347 -3.434552 0.015279
C 25.202951 -2.471948 0.016326
C 24.514300 -1.212931 0.008342
C 25.153294 0.037764 0.003558
C 24.488062 1.274621 -0.004479
C 25.150385 2.547818 -0.007006
C 24.176957 3.490312 -0.012508
C 22.923526 2.790525 -0.013987
N 23.144730 1.445766 -0.008822
C 21.682711 3.405443 -0.020326
C 20.455531 2.763508 -0.024597
C 19.182610 3.431933 -0.034014
C 18.235294 2.465371 -0.037984
C 18.928806 1.205499 -0.030385
N 20.270776 1.417234 -0.022297
C 18.309743 -0.033889 -0.031042
C 18.954695 -1.259952 -0.022885
C 18.287690 -2.534086 -0.022753
C 19.255016 -3.480567 -0.013158
C 20.513722 -2.785586 -0.007680
N 20.300829 -1.443487 -0.013679
C 21.753972 -3.401776 0.001911
C 22.981688 -2.761124 0.006827
N 23.174835 -1.412062 0.003173
H 24.377547 -4.499841 0.019288
H 26.269780 -2.585708 0.021446
H 26.214638 2.683457 -0.004440
H 24.282803 4.558051 -0.015810
H 21.672282 4.486584 -0.023037
H 19.050879 4.496998 -0.037312
H 17.167871 2.575816 -0.045366
H 17.228807 -0.045308 -0.038289
H 17.222797 -2.666855 -0.029093
H 19.145647 -4.548153 -0.010049
H 21.766003 -4.482896 0.005399
Zn 62.059078 0.036600 -0.009186
C 59.535999 3.423927 0.605876
C 58.580061 2.478898 0.435623
C 59.265701 1.238134 0.211617
C 58.623467 0.007791 -0.002665
C 59.285229 -1.211964 -0.217950
C 58.619765 -2.464391 -0.438105
C 59.590932 -3.393285 -0.611063
C 60.846038 -2.706129 -0.496017
N 60.628183 -1.382430 -0.255987
C 62.085273 -3.312201 -0.617527
C 63.313996 -2.681577 -0.514539
C 64.585204 -3.340099 -0.647355
C 65.534978 -2.390649 -0.479670
C 64.844722 -1.151156 -0.244246
N 63.502203 -1.357770 -0.272327
C 65.467027 0.066177 -0.020449
C 64.825260 1.272536 0.207778
C 65.495515 2.523961 0.438085
C 64.530569 3.456685 0.612823
C 63.270112 2.776035 0.489330
N 63.479586 1.455702 0.245577
C 62.031388 3.385262 0.600688
C 60.802101 2.758126 0.485444
N 60.605708 1.431087 0.245274
H 59.410373 4.472524 0.795687
H 57.513473 2.593109 0.457675
H 57.555192 -2.596705 -0.456317
H 59.482356 -4.443981 -0.799527
H 62.092991 -4.375855 -0.811331
H 64.714170 -4.387467 -0.842425
H 66.602102 -2.500284 -0.509105
H 66.547999 0.075587 -0.024314
H 66.560770 2.652283 0.459490
H 64.642648 4.506232 0.806750
H 62.021966 4.448821 0.794967
C 26.551679 0.052005 0.005601
C 27.769864 0.060282 0.005565
C 29.111653 0.067679 0.004577
C 30.329951 0.070207 0.003425
C 39.999066 0.046711 -0.021540
C 41.217499 0.041477 -0.022380
C 42.558818 0.035770 -0.022418
C 43.777312 0.029735 -0.021384
C 53.446464 -0.012364 -0.007695
C 54.664687 -0.013515 -0.005056
C 56.006693 -0.011194 -0.002907
C 57.224808 -0.002408 -0.002008
Zn 35.164762 0.059267 -0.011681
C 32.662891 -3.373796 0.388503
C 31.700880 -2.425186 0.282515
C 32.378573 -1.168904 0.137465
C 31.727806 0.068321 -0.000876
C 32.383757 1.302014 -0.144577
C 31.711775 2.561241 -0.289448
C 32.678087 3.504482 -0.404431
C 33.935928 2.818489 -0.328521
N 33.725592 1.481102 -0.170847
C 35.172340 3.436733 -0.404681
C 36.405806 2.812338 -0.334376
C 37.666700 3.492039 -0.414679
C 38.628691 2.543652 -0.306138
C 37.950973 1.287595 -0.160428
N 36.610105 1.473469 -0.179970
C 38.601592 0.050612 -0.019255
C 37.945445 -1.183235 0.124289
C 38.617573 -2.442649 0.267536
C 37.651378 -3.386397 0.379016
C 36.393529 -2.700431 0.303488
N 36.603804 -1.362552 0.148597
C 35.157214 -3.318742 0.377536
C 33.923757 -2.693969 0.308232
N 33.719536 -1.355016 0.155415
H 32.544327 -4.433283 0.509582
H 30.635066 -2.546634 0.299006
H 30.646523 2.688195 -0.300241
H 32.564175 4.564039 -0.528985
H 35.174730 4.510648 -0.530611
H 37.785417 4.551353 -0.536831
H 39.694509 2.665190 -0.321072
H 39.682797 -2.569478 0.279022
H 37.765370 -4.446278 0.501023
H 35.154597 -4.392926 0.501068
Zn 48.611498 0.007913 -0.015910
C 46.101480 -3.420560 0.373471
C 45.141754 -2.469530 0.268100
C 45.822436 -1.214995 0.122927
C 45.174790 0.023324 -0.020222
C 45.833879 1.255765 -0.161995
C 45.164771 2.516287 -0.309253
C 46.133218 3.458632 -0.412789
C 47.389413 2.770723 -0.328428
N 47.175958 1.432904 -0.177539
C 48.627121 3.387577 -0.390130
C 49.859122 2.760761 -0.313416
C 51.121661 3.438873 -0.382289
C 52.081414 2.488127 -0.274934
C 51.400745 1.232280 -0.140601
N 50.060168 1.420814 -0.165633
C 52.048383 -0.007283 -0.010056
C 51.389542 -1.241105 0.117592
C 52.058600 -2.503111 0.252708
C 51.090045 -3.445328 0.356330
C 49.833818 -2.755954 0.284080
N 50.047244 -1.417748 0.138011
C 48.596013 -3.371781 0.356856
C 47.363998 -2.743897 0.292364
N 47.162857 -1.404155 0.141469
H 45.980219 -4.479722 0.494621
H 44.075671 -2.588390 0.285170
H 44.099845 2.644674 -0.328695
H 46.021786 4.518777 -0.534601
H 48.632219 4.462174 -0.509932
H 51.242855 4.498683 -0.497869
H 53.147517 2.607840 -0.285162
H 53.123576 -2.632332 0.266035
H 51.201421 -4.506260 0.471355
H 48.591181 -4.446468 0.475919
