78
 xtb: 6.4.1 (bd6e46d)
C         3.86912808706551   -1.44396036317881   -3.38652641895006
C         3.02553976389349   -1.14289091133128   -2.38019152125777
C         3.82603044092987   -0.45843119450860   -1.38002023123477
C         3.29945679049749    0.01735415176557   -0.16471979281348
C         4.05375656673670    0.65220003347866    0.83348959820772
C         3.59084047189290    1.12869038525519    2.09002782991048
C         4.65837584874146    1.67829774728981    2.73896707445220
C         5.79537916223889    1.55478982129794    1.89097279003993
N         5.38061251049781    0.92619394086099    0.75660374570600
C         7.07895454832912    2.00734602212106    2.15781412940832
C         8.18998065964071    1.92235703863619    1.33000121994986
C         9.49111453546251    2.45875383943934    1.70317477907482
C        10.31228009347376    2.20754622957639    0.66688104047735
C         9.50770546747240    1.51603503847849   -0.32884351253524
N         8.23785003356840    1.36475065158321    0.10220222287100
C        10.01232060055404    1.08013587819596   -1.54767296930068
C         9.29166428122815    0.40920555855806   -2.52356629092521
C         9.75551239234703   -0.07089117562432   -3.78210414436133
C         8.70386127750870   -0.67112893609301   -4.40861948584024
C         7.56925187724019   -0.57116497342920   -3.55106978276133
N         7.97452464953803    0.08330863222990   -2.43118869306763
C         6.29074652102976   -1.04272696434016   -3.80708882689682
C         5.17191525193628   -0.93296026063711   -2.99366479677748
N         5.10707922339848   -0.35045129926242   -1.77336373965202
H         3.65822592944575   -1.91101831779202   -4.33093960126225
H         1.97250136018300   -1.32682491797410   -2.30175376234026
H         2.58314415660979    1.02243233341361    2.44753387833472
H         4.67532446131364    2.08586283959900    3.73053759702085
H         5.96298718531856    0.68525906480160   -0.03692441933874
H         7.23190592699288    2.44843070049229    3.13393830098057
H         9.71042297198989    2.91379657412100    2.65343901851828
H        11.35561384437242    2.42889007653043    0.56641643684569
H        11.05479400112898    1.28237220730099   -1.74796818416465
H        10.75498766315686    0.06533639922355   -4.15389827791019
H         8.69209503169531   -1.09582943842303   -5.39154135179145
H         7.39585259894521    0.32051555777566   -1.63355908277799
H         6.14047169394103   -1.50294988725406   -4.77365475034766
C         1.92456351299938   -0.12883798290577    0.06000096031044
C         0.72306099141584   -0.22174508434811    0.23206206287040
C        -0.60883946031296   -0.29523362087123    0.39969569192597
C        -1.81816059594317   -0.33906800941414    0.53125301202940
C        -9.43426469802850    2.40768651803918   -0.51302032571492
C       -10.32610857833960    1.54365182583290    0.00607830567947
C        -9.54944803127045    0.44971769340885    0.56923102183253
C       -10.12310576149850   -0.64578477682773    1.20255622698444
C        -9.42854035758231   -1.70902191585267    1.75841557629394
C        -9.95967727223153   -2.85276282492974    2.42127805543607
C        -8.90950405514617   -3.63259667870455    2.80556150333185
C        -7.70921325038213   -2.98679511544177    2.38718065218561
N        -8.07468713642142   -1.83682069344851    1.76143751340387
C        -6.41294179432307   -3.44103635116121    2.57650583259932
C        -5.23579067962413   -2.82886385648627    2.16998348630359
C        -3.92711006481312   -3.40976925116071    2.42098184493762
C        -3.02771395419695   -2.56111675531388    1.88625915451278
C        -3.79865503079942   -1.46993502231683    1.31676492912725
N        -5.11707857304918   -1.65772474348403    1.50180289862749
C        -3.21263631098324   -0.37258641811975    0.65997824879280
C        -3.93041860685343    0.70215157269930    0.11276604518753
C        -3.39957529532874    1.84295595084601   -0.54852589771970
C        -4.45159439714668    2.63162638327492   -0.91447678774080
C        -5.64797220158065    1.98942414802988   -0.48655756580667
N        -5.28097089883955    0.83221247643981    0.13035949979949
C        -6.94342900637967    2.45114409882491   -0.66582871668437
C        -8.11971239050369    1.83370478542236   -0.26358618340622
N        -8.22814034527691    0.65843227893724    0.39013820735668
H        -9.60879344811857    3.31748857219310   -1.05674668255497
H       -11.39798109155830    1.59436834394202    0.00493689710662
H       -11.20094818511685   -0.66810925950959    1.27218159015713
H       -11.00368028495826   -3.02296248751730    2.60298223585864
H        -8.94620420240764   -4.54335649658635    3.37157233053869
H        -7.44740497584317   -1.15000502718854    1.35968179308921
H        -6.30682900179208   -4.35897054293368    3.13903304341311
H        -3.75736490540980   -4.31388062328452    2.97552363508041
H        -1.95653661998112   -2.61954440554387    1.88458926251015
H        -2.35579308578167    2.00442119495999   -0.74172954568709
H        -4.41519645806409    3.54405442060039   -1.47738655586587
H        -5.91088073084926    0.14808199779518    0.53341620159678
H        -7.04684850163252    3.37308443308007   -1.22226145687700
